83

N          1.10165       -1.37488        0.17156
C          0.59645       -2.22411        1.24942
C         -0.22471       -3.34231        0.97147
C         -0.96064       -3.98054        1.97322
C         -0.81341       -3.58034        3.29424
C          0.10844       -2.58435        3.61233
C          0.80411       -1.90665        2.60039
C          0.30063       -1.28655       -1.04984
C         -1.11318       -1.29947       -0.98963
C         -1.90253       -1.31204       -2.14295
C         -1.29863       -1.25157       -3.39179
C          0.09041       -1.18505       -3.48261
C          0.88326       -1.21640       -2.32611
C          2.42123       -0.72604        0.25872
C          2.72036        0.54620       -0.34495
C          1.72031        1.46508       -0.75326
C          2.01073        2.63645       -1.45566
C          3.31772        2.91504       -1.80423
C          4.33470        2.08034       -1.34852
C          4.08288        0.94585       -0.53375
C          5.12573        0.20108        0.08676
C          4.78678       -0.93941        0.83061
C          3.47542       -1.41550        0.88297
C          6.54601        0.59002        0.05288
C          7.24749        1.77735        0.05570
C          8.62579        1.44056        0.02777
C          8.72144        0.05966        0.03231
O          7.44009       -0.44388        0.04415
C          9.88039       -0.79799        0.02559
C         11.22250       -0.51905       -0.03332
C         12.08332        0.63485       -0.15368
O         11.75165        1.80760       -0.17348
N         13.36196        0.11668       -0.27351
C         14.52518        0.90481       -0.58733
C         13.41751       -1.26009       -0.17941
O         14.40383       -1.97575       -0.21427
C         12.04490       -1.66968       -0.05332
C         11.36382       -2.85210       -0.05164
S          9.67396       -2.52776        0.05203
C         11.86888       -4.18940       -0.15522
C         13.03450       -4.72240        0.36045
C         13.05927       -6.09192        0.00691
C         11.90706       -6.35555       -0.71939
O         11.20716       -5.17832       -0.83193
C         11.37124       -7.60596       -1.14708
C         10.62342       -8.32917       -0.29869
S         10.31469       -7.73968        1.34215
C          9.85864       -9.56138       -0.56024
C          9.97011      -10.33533       -1.64982
N          8.98453       -9.81927        0.48193
C          8.98172       -8.88121        1.48497
C          8.14438       -8.73365        2.52250
C          8.22221       -7.65858        3.47320
N          8.27552       -6.81832        4.26806
C          7.15287       -9.81858        2.91012
N          6.33033      -10.71861        3.23167
H         -0.35270       -3.69147       -0.05166
H         -1.66582       -4.76575        1.71157
H         -1.41283       -4.04441        4.07339
H          0.25831       -2.30464        4.65189
H          1.46865       -1.09610        2.88431
H         -1.62264       -1.32591       -0.02842
H         -2.98457       -1.37322       -2.05824
H         -1.90837       -1.25428       -4.29160
H          0.56320       -1.12021       -4.45914
H          1.96326       -1.19284       -2.44218
H          0.67743        1.27591       -0.50671
H          1.21037        3.31070       -1.74693
H          3.55667        3.78918       -2.40393
H          5.34651        2.33457       -1.65290
H          5.56217       -1.49156        1.36064
H          3.29969       -2.35375        1.40247
H          6.83111        2.77457        0.08326
H          9.44330        2.14607        0.01885
H         15.28380        0.75453        0.18525
H         14.93221        0.54788       -1.53968
H         14.27405        1.96405       -0.67500
H         13.76562       -4.19643        0.95886
H         13.79202       -6.82541        0.31386
H         11.51176       -7.88915       -2.18127
H         10.67073      -10.11540       -2.44705
H          9.36674      -11.22968       -1.76955
H          8.26408      -10.51374        0.38422
