83

N          1.19945       -1.46853        0.33950
C          0.71750       -2.32377        1.42267
C         -0.08539       -3.45702        1.15311
C         -0.80088       -4.10652        2.16218
C         -0.65084       -3.70004        3.48108
C          0.25442       -2.68602        3.78982
C          0.92982       -1.99871        2.77106
C          0.38646       -1.39517       -0.87406
C         -1.02621       -1.42513       -0.79928
C         -1.82651       -1.44971       -1.94447
C         -1.23537       -1.38587       -3.19937
C          0.15183       -1.30431       -3.30441
C          0.95627       -1.32279       -2.15593
C          2.50947       -0.80040        0.41367
C          2.78584        0.47363       -0.19646
C          1.76856        1.37544       -0.60016
C          2.03506        2.54676       -1.31144
C          3.33518        2.84339       -1.67109
C          4.36938        2.02781       -1.21785
C          4.14153        0.89198       -0.39785
C          5.19902        0.16200        0.21593
C          4.88050       -0.97941        0.96748
C          3.57712       -1.47317        1.03184
C          6.61650        0.56047        0.16767
C          7.31491        1.74922        0.15635
C          8.69501        1.41525        0.13345
C          8.79396        0.03471        0.15055
O          7.51406       -0.47066        0.16584
C          9.95286       -0.82299        0.15020
C         11.29614       -0.54612        0.11545
C         12.16017        0.60840        0.03184
O         11.82987        1.78172        0.03080
N         13.44004        0.09079       -0.07659
C         14.61129        0.88504       -0.34169
C         13.49168       -1.28823       -0.01751
O         14.47705       -2.00467       -0.06236
C         12.11698       -1.69818        0.08431
C         11.43341       -2.87904        0.06235
S          9.74310       -2.55205        0.15227
C         11.93199       -4.21793       -0.05115
C         13.10038       -4.76081        0.44783
C         13.11511       -6.12756        0.08296
C         11.94882       -6.38070       -0.62244
O         11.25540       -5.20020       -0.72179
C         11.41050       -7.61888       -1.07182
C         10.65041       -8.36166       -0.24716
S         10.32051       -7.84244        1.41980
C          9.91025       -9.59416       -0.56589
C         10.03499      -10.30607       -1.69393
N          9.05576       -9.92189        0.46819
C          9.05878       -9.07222        1.56043
C          8.24320       -9.06210        2.63494
C          8.31150       -8.07336        3.65956
N          8.35558       -7.25795        4.47976
C          7.24437      -10.06161        2.76416
N          6.43989      -10.89274        2.84673
H         -0.21505       -3.81023        0.13156
H         -1.49291       -4.90572        1.90801
H         -1.23541       -4.17316        4.26599
H          0.40672       -2.40026        4.82733
H          1.58179       -1.17538        3.04729
H         -1.52508       -1.45520        0.16740
H         -2.90685       -1.52266       -1.84879
H         -1.85397       -1.39792       -4.09299
H          0.61434       -1.23751       -4.28574
H          2.03483       -1.28736       -2.28210
H          0.73066        1.17181       -0.34374
H          1.22174        3.20639       -1.60043
H          3.55493        3.71763       -2.27810
H          5.37507        2.29746       -1.52915
H          5.66680       -1.52021        1.49307
H          3.41909       -2.41260        1.55478
H          6.89663        2.74577        0.17571
H          9.51142        2.12188        0.11880
H         15.34730        0.71843        0.44937
H         15.04593        0.54843       -1.28906
H         14.36246        1.94607       -0.41281
H         13.84287       -4.24288        1.03884
H         13.85512       -6.86455        0.36274
H         11.57630       -7.88634       -2.10768
H         10.71529      -10.03200       -2.49051
H          9.44847      -11.20791       -1.85971
H          8.38688      -10.67518        0.36430
