83

N          1.10509       -1.29739        0.18550
C          0.59936       -2.14178        1.26781
C         -0.25740       -3.23548        0.99903
C         -0.99639       -3.85592        2.01000
C         -0.81804       -3.46479        3.32989
C          0.13995       -2.49986        3.63697
C          0.84016       -1.83914        2.61660
C          0.27988       -1.17938       -1.01835
C         -1.13275       -1.15860       -0.92894
C         -1.94705       -1.14225       -2.06531
C         -1.36891       -1.08867       -3.32642
C          0.01915       -1.05695       -3.44596
C          0.83592       -1.11458       -2.30670
C          2.44392       -0.68284        0.25023
C          2.76594        0.58335       -0.35347
C          1.78254        1.53152       -0.73623
C          2.08958        2.69839       -1.43894
C          3.39619        2.94288       -1.81333
C          4.39998        2.07905       -1.38204
C          4.13655        0.94690       -0.56762
C          5.17395        0.17153        0.02858
C          4.81714       -0.96200        0.77358
C          3.49254       -1.40121        0.85161
C          6.60490        0.53204       -0.02163
C          7.32164        1.71156       -0.02234
C          8.69459        1.36024       -0.05384
C          8.77320       -0.02376       -0.03420
O          7.48946       -0.51489       -0.02821
C          9.93911       -0.87268        0.00513
C         10.02094       -2.23802        0.09294
C          9.11992       -3.36056        0.21308
O          7.90159       -3.34938        0.18525
N          9.95053       -4.45615        0.39560
C          9.48280       -5.77111        0.74493
C         11.29749       -4.15828        0.32419
O         12.24321       -4.92397        0.40142
C         11.34440       -2.73163        0.16074
C         12.31241       -1.76970        0.14524
S         11.55329       -0.22121        0.01742
C         13.73829       -1.90632        0.24835
C         14.56837       -2.91012       -0.20997
C         15.89889       -2.54158        0.12152
C         15.84892       -1.31531        0.76581
O         14.51769       -0.97991        0.87482
C         16.91589       -0.50076        1.26180
C         16.85294        0.84490        1.30701
S         15.46403        1.75063        0.67819
C         17.85319        1.77546        1.87176
C         19.07087        1.43741        2.32086
N         17.36040        3.06909        1.88302
C         16.09159        3.24502        1.36996
C         15.32152        4.34769        1.35196
C         13.98878        4.35522        0.84557
N         12.89836        4.35708        0.45008
C         15.81706        5.57300        1.87898
N         16.24088        6.55881        2.32220
H         -0.41134       -3.57642       -0.02336
H         -1.72853       -4.61882        1.75642
H         -1.42119       -3.91185        4.11614
H          0.31511       -2.22926        4.67493
H          1.53474       -1.05155        2.89294
H         -1.62295       -1.18099        0.04240
H         -3.02832       -1.17612       -1.95812
H         -1.99765       -1.07007       -4.21311
H          0.47286       -0.99901       -4.43203
H          1.91339       -1.11645       -2.44607
H          0.74022        1.36972       -0.46812
H          1.30218        3.39588       -1.71024
H          3.64627        3.81303       -2.41448
H          5.41170        2.30785       -1.70654
H          5.58806       -1.54030        1.28238
H          3.30281       -2.33614        1.37196
H          6.91639        2.71316        0.01179
H          9.53156        2.04662       -0.05894
H          9.84613       -6.49180        0.00787
H          9.90963       -6.03527        1.71883
H          8.39310       -5.80149        0.80694
H         14.25764       -3.79767       -0.74258
H         16.79669       -3.09354       -0.11761
H         17.79734       -1.02551        1.61463
H         19.44775        0.42050        2.30188
H         19.74991        2.18539        2.72219
H         17.88531        3.81452        2.32491
