83

N          1.21274       -1.35003        0.35150
C          0.71656       -2.18616        1.44452
C         -0.15173       -3.27473        1.19234
C         -0.87951       -3.88707        2.21606
C         -0.67613       -3.49547        3.53210
C          0.29244       -2.53558        3.82153
C          0.97935       -1.88049        2.78849
C          0.37370       -1.23357       -0.84225
C         -1.03741       -1.20705       -0.73505
C         -1.86541       -1.19716       -1.86091
C         -1.30264       -1.15018       -3.12937
C          0.08383       -1.11891       -3.26635
C          0.91438       -1.17508       -2.13725
C          2.55537       -0.74287        0.39579
C          2.87513        0.52170       -0.21358
C          1.89120        1.47065       -0.59375
C          2.19595        2.63526       -1.30134
C          3.50086        2.87800       -1.68188
C          4.50536        2.01300       -1.25505
C          4.24453        0.88206       -0.43850
C          5.28461        0.10375        0.14888
C          4.93256       -1.03241        0.89190
C          3.60780       -1.46779        0.98256
C          6.71474        0.46361        0.08964
C          7.43291        1.64222        0.08452
C          8.80491        1.28873        0.04484
C          8.88072       -0.09525        0.06526
O          7.59712       -0.58442        0.07763
C         10.04351       -0.94741        0.10297
C         10.12133       -2.31274        0.19392
C          9.21899       -3.43356        0.31592
O          8.00060       -3.42132        0.28236
N         10.04775       -4.52937        0.50731
C          9.57794       -5.84285        0.85819
C         11.39477       -4.23344        0.44252
O         12.34036       -4.99782        0.53235
C         11.44166       -2.80891        0.26956
C         12.41248       -1.85500        0.24989
S         11.65875       -0.29994        0.11169
C         13.83414       -1.99082        0.37060
C         14.66956       -2.98801       -0.08811
C         15.99897       -2.61754        0.25273
C         15.93607       -1.39370        0.89840
O         14.60116       -1.06908        1.00623
C         16.99234       -0.55237        1.37424
C         16.90937        0.79132        1.37977
S         15.50982        1.65520        0.71501
C         17.90394        1.75241        1.89825
C         19.10848        1.44341        2.39689
N         17.42090        3.04761        1.81272
C         16.15418        3.19164        1.27957
C         15.40350        4.30730        1.15850
C         14.07702        4.28659        0.62923
N         12.99450        4.27397        0.21168
C         15.92119        5.55452        1.58329
N         16.37436        6.56274        1.93492
H         -0.32395       -3.61751        0.17350
H         -1.62199       -4.64413        1.97545
H         -1.26834       -3.93817        4.32902
H          0.48631       -2.26448        4.85603
H          1.68145       -1.09502        3.05166
H         -1.51515       -1.22102        0.24263
H         -2.94521       -1.23067       -1.73993
H         -1.94231       -1.13577       -4.00805
H          0.52558       -1.06282       -4.25786
H          1.99014       -1.17996       -2.28973
H          0.84977        1.31084       -0.32138
H          1.40769        3.33211       -1.57164
H          3.74933        3.74690       -2.28558
H          5.51547        2.23953       -1.58601
H          5.70696       -1.61569        1.39026
H          3.42008       -2.40442        1.50078
H          7.02907        2.64416        0.12138
H          9.64294        1.97385        0.03516
H          9.94192       -6.56479        0.12263
H         10.00307       -6.10602        1.83308
H          8.48811       -5.87174        0.91802
H         14.36775       -3.87164       -0.63187
H         16.90101       -3.16131        0.02035
H         17.88008       -1.05529        1.73673
H         19.47583        0.42576        2.45979
H         19.78211        2.21613        2.76008
H         17.94756        3.81795        2.19346
