83

N          1.16777       -1.40515        0.23759
C          0.64259       -2.26458        1.29489
C         -0.17615       -3.37663        0.98762
C         -0.91902       -4.03554        1.97008
C         -0.78588       -3.65873        3.29942
C          0.12463       -2.66067        3.64433
C          0.83039       -1.96460        2.65222
C          0.38562       -1.29171       -0.99236
C         -1.02854       -1.28665       -0.95063
C         -1.80128       -1.27104       -2.11425
C         -1.17890       -1.19555       -3.35364
C          0.21202       -1.14746       -3.42425
C          0.98764       -1.21054       -2.25830
C          2.49147       -0.77263        0.34842
C          2.80115        0.50983       -0.22461
C          1.80655        1.44055       -0.62080
C          2.10472        2.62265       -1.29942
C          3.41462        2.90233       -1.63471
C          4.42596        2.05313       -1.19081
C          4.16674        0.90301       -0.40042
C          5.20305        0.13366        0.20374
C          4.85416       -1.02431        0.91522
C          3.53771       -1.48890        0.95531
C          6.62627        0.51750        0.18191
C          7.32738        1.70479        0.20231
C          8.70552        1.36952        0.16917
C          8.80321       -0.01044        0.15728
O          7.52135       -0.51617        0.16255
C          9.96713       -0.86308        0.14451
C         11.30873       -0.57680        0.08869
C         12.16525        0.58127       -0.02273
O         11.82720        1.75197       -0.04497
N         13.44868        0.07124       -0.12781
C         14.61330        0.86866       -0.40894
C         13.50915       -1.30663       -0.05215
O         14.49757       -2.01918       -0.09559
C         12.13777       -1.72225        0.06817
C         11.46368       -2.90826        0.06954
S          9.77068       -2.59429        0.16215
C         11.97897       -4.24157       -0.03060
C         13.13328       -4.77443        0.51068
C         13.17832       -6.13874        0.13450
C         12.04600       -6.39842       -0.62187
O         11.34146       -5.22582       -0.73617
C         11.52533       -7.64462       -1.08496
C         10.76376       -8.38977       -0.26738
S         10.42055       -7.84632        1.37977
C          9.99419       -9.60696       -0.58236
C         10.12070      -10.34403       -1.69527
N          9.09912       -9.88590        0.43170
C          9.07525       -8.97433        1.46403
C          8.21403       -8.84730        2.48057
C          8.28054       -7.81734        3.44758
N          8.32074       -6.99404        4.26894
C          7.20566       -9.93469        2.81401
N          6.36913      -10.83676        3.09062
H         -0.29346       -3.70618       -0.04325
H         -1.61734       -4.81948        1.68719
H         -1.38888       -4.14114        4.06432
H          0.25826       -2.39449        4.68959
H          1.48658       -1.15396        2.95506
H         -1.55045       -1.31866        0.00395
H         -2.88494       -1.32192       -2.04619
H         -1.77540       -1.17924       -4.26260
H          0.70068       -1.07281       -4.39207
H          2.07007       -1.19953       -2.35785
H          0.76082        1.24956       -0.38572
H          1.30788        3.30367       -1.58560
H          3.66062        3.78665       -2.21681
H          5.43925        2.30828       -1.48856
H          5.62416       -1.59934        1.42880
H          3.35011       -2.44008        1.44650
H          6.91037        2.70144        0.24319
H          9.52112        2.07734        0.16455
H         15.36240        0.70212        0.36967
H         15.03271        0.53415       -1.36381
H         14.36113        1.92920       -0.47438
H         13.84437       -4.25171        1.13567
H         13.91171       -6.87026        0.44529
H         11.68016       -7.89825       -2.12459
H         10.83602      -10.10632       -2.47261
H          9.50839      -11.22667       -1.85451
H          8.36598      -10.57461        0.29596
