83

N          1.15926       -1.27572        0.27042
C          0.65863       -2.11844        1.35671
C         -0.20341       -3.20972        1.09416
C         -0.94089       -3.82484        2.10936
C         -0.75397       -3.43307        3.42781
C          0.21053       -2.47260        3.72868
C          0.90805       -1.81558        2.70393
C          0.32845       -1.15961       -0.92926
C         -1.08354       -1.13799       -0.83192
C         -1.90338       -1.12657       -1.96445
C         -1.33156       -1.07684       -3.22824
C          0.05579       -1.04263       -3.35554
C          0.87838       -1.09693       -2.22012
C          2.49783       -0.65999        0.32639
C          2.81564        0.60621       -0.28115
C          1.83012        1.55220       -0.66404
C          2.13343        2.71875       -1.36971
C          3.43913        2.96584       -1.74574
C          4.44487        2.10447       -1.31563
C          4.18484        0.97189       -0.49993
C          5.22459        0.19810        0.09244
C          4.87309       -0.93739        0.83714
C          3.54972       -1.37842        0.92193
C          6.65461        0.55954        0.03766
C          7.37219        1.73847        0.03544
C          8.74500        1.38513        0.00202
C          8.82113        0.00074        0.02129
O          7.53721       -0.48799        0.02835
C          9.98294       -0.85234        0.05898
C         10.05883       -2.21849        0.14539
C          9.15442       -3.33836        0.26452
O          7.93599       -3.32362        0.23857
N          9.98213       -4.43698        0.44477
C          9.51216       -5.75145        0.79194
C         11.32901       -4.14297        0.37457
O         12.27358       -4.91129        0.45205
C         11.37973       -2.71723        0.21216
C         12.35122       -1.75959        0.19903
S         11.59899       -0.20753        0.07127
C         13.77446       -1.90233        0.30665
C         14.60494       -2.90712       -0.14709
C         15.93579       -2.53498        0.18579
C         15.88305       -1.30039        0.81324
O         14.55113       -0.97629        0.93425
C         16.94267       -0.46093        1.27932
C         16.85556        0.88379        1.29119
S         15.44492        1.74431        0.64904
C         17.84219        1.84877        1.82161
C         19.07112        1.54984        2.26913
N         17.32500        3.12919        1.80469
C         16.04770        3.26385        1.30483
C         15.24397        4.35619        1.28481
C         13.90642        4.31154        0.79597
N         12.81114        4.26590        0.41457
C         15.72601        5.58736        1.77587
N         16.15657        6.59378        2.17917
H         -0.36384       -3.55175        0.07311
H         -1.67877       -4.58371        1.86024
H         -1.35549       -3.87603        4.21760
H          0.39249       -2.20213        4.76552
H          1.60676       -1.03021        2.97584
H         -1.56823       -1.15695        0.14174
H         -2.98405       -1.16105       -1.85115
H         -1.96473       -1.06284       -4.11208
H          0.50460       -0.98599       -4.34352
H          1.95510       -1.09808       -2.36484
H          0.78838        1.38891       -0.39471
H          1.34414        3.41341       -1.64139
H          3.68645        3.83660       -2.34758
H          5.45581        2.33508       -1.64146
H          5.64709       -1.51606        1.34099
H          3.36370       -2.31436        1.44125
H          6.96822        2.74041        0.07058
H          9.58303        2.07039       -0.00362
H          9.87613       -6.47147        0.05452
H          9.93793       -6.01708        1.76601
H          8.42250       -5.78055        0.85252
H         14.29733       -3.79530       -0.67996
H         16.83573       -3.08594       -0.05077
H         17.83734       -0.96123        1.63307
H         19.46383        0.53944        2.27124
H         19.73480        2.32051        2.64218
H         17.83040        3.89809        2.22462
