91

N          1.13775       -1.26445        0.03897
C          0.51515       -2.11723        1.04582
C         -0.34967       -3.17180        0.66868
C         -1.18271       -3.80522        1.59358
C         -1.10168       -3.46279        2.93639
C         -0.15460       -2.52792        3.35317
C          0.64611       -1.85667        2.41751
C          0.41973       -1.07496       -1.22180
C         -0.99169       -0.98193       -1.24248
C         -1.70641       -0.88734       -2.43930
C         -1.02322       -0.82158       -3.64685
C          0.36970       -0.85852       -3.65448
C          1.08436       -1.00015       -2.45724
C          2.48606       -0.70340        0.22375
C          2.88000        0.56822       -0.31499
C          1.94344        1.55890       -0.70814
C          2.31470        2.72892       -1.36960
C          3.64222        2.93338       -1.68781
C          4.59845        2.02314       -1.23912
C          4.26770        0.88205       -0.46066
C          5.24861        0.04673        0.15782
C          4.81647       -1.09169        0.85414
C          3.47271       -1.48090        0.85528
C          6.69068        0.36294        0.17177
C          7.42366        1.52924        0.21781
C          8.78868        1.16056        0.19042
C          8.85765       -0.22203        0.16894
O          7.55958       -0.69962        0.16185
C         10.02068       -1.08176        0.15520
C         11.36069       -0.78822        0.07238
C         12.20377        0.37853       -0.06351
O         11.86145        1.54841       -0.05945
N         13.48676       -0.11749       -0.20985
C         14.63022        0.70143       -0.52294
C         13.56634       -1.49248       -0.11054
O         14.56528       -2.18938       -0.16379
C         12.20202       -1.92700        0.05119
C         11.53905       -3.12016        0.11595
S          9.83997       -2.81145        0.21438
C         12.05940       -4.45945        0.08629
C         13.27359       -4.93665        0.54255
C         13.29842       -6.32797        0.29221
C         12.10655       -6.66434       -0.32834
O         11.36314       -5.51326       -0.44723
C         11.66558       -7.94776       -0.75031
C         10.77039       -8.07882       -1.74055
C         10.18735       -9.32540       -2.18221
C         10.55388      -10.69359       -1.72889
O         11.43322      -10.96888       -0.93613
C          9.24086       -9.53349       -3.11086
C          8.74643       -8.44749       -4.05242
N          8.33625       -7.54656       -4.83353
C          8.78289      -10.94144       -3.17688
C          7.65883      -11.46750       -3.74686
C          6.68160      -10.68722       -4.42742
N          5.86642      -10.07509       -4.97676
C          7.34828      -12.95308       -3.66317
N          7.09065      -14.18549       -3.59375
N          9.75174      -11.59749       -2.42650
C         10.03290      -13.01814       -2.27331
C          9.34036      -13.70465       -1.10834
O          9.50079      -14.86948       -0.77973
O          8.47923      -12.92066       -0.42837
H         -0.43176       -3.46958       -0.37541
H         -1.90991       -4.53898        1.25436
H         -1.77451       -3.92289        3.65559
H         -0.06626       -2.28942        4.40983
H          1.32911       -1.09089        2.77284
H         -1.55809       -1.00520       -0.31363
H         -2.79307       -0.86899       -2.42137
H         -1.57440       -0.74013       -4.58000
H          0.90621       -0.78855       -4.59715
H          2.16825       -1.05629       -2.50817
H          0.88605        1.42259       -0.48856
H          1.56058        3.45580       -1.65773
H          3.94420        3.80419       -2.26312
H          5.62739        2.22010       -1.52743
H          5.53973       -1.70948        1.38449
H          3.21649       -2.42312        1.33248
H          7.03350        2.53622        0.26138
H          9.61652        1.85178        0.19993
H         15.39338        0.56931        0.24851
H         15.04494        0.36225       -1.47805
H         14.35211        1.75510       -0.60325
H         14.05592       -4.35803        1.01400
H         14.09996       -7.01483        0.52871
H         12.07360       -8.80273       -0.21968
H         10.40916       -7.17342       -2.22977
H          9.81573      -13.53693       -3.20980
H         11.10938      -13.12794       -2.09105
H          8.16640      -13.50614        0.29623
