83

N          1.05130       -1.40941        0.20733
C          0.53954       -2.26476        1.27577
C         -0.31096       -3.35619        0.98767
C         -1.04207       -4.00418        1.98688
C         -0.86361       -3.63698        3.31368
C          0.07941       -2.66258        3.63752
C          0.77194       -1.97663        2.62906
C          0.23368       -1.27461       -0.99788
C         -1.17842       -1.24494       -0.91311
C         -1.98565       -1.20945       -2.05280
C         -1.39901       -1.13800       -3.30948
C         -0.01043       -1.11315       -3.42264
C          0.79827       -1.19733       -2.28154
C          2.39026       -0.80158        0.28283
C          2.71187        0.47456       -0.29938
C          1.72744        1.42414       -0.67524
C          2.03404        2.59758       -1.36371
C          3.33977        2.85340       -1.72759
C          4.34384        1.98535       -1.30253
C          4.08042        0.84272       -0.50226
C          5.11329        0.05766        0.08648
C          4.75967       -1.09036        0.80807
C          3.43650       -1.53356        0.87125
C          6.53989        0.42736        0.05312
C          7.25104        1.61383        0.06261
C          8.62604        1.26500        0.02407
C          8.71406       -0.11524        0.02867
O          7.42713       -0.61641        0.04181
C          9.87387       -0.97453        0.01971
C         11.21627       -0.69115       -0.04122
C         12.07540        0.46524       -0.15737
O         11.74400        1.63831       -0.16189
N         13.35496       -0.04928       -0.28613
C         14.51576        0.74563       -0.59304
C         13.41325       -1.42669       -0.20550
O         14.39916       -2.14139       -0.26288
C         12.04224       -1.83928       -0.06696
C         11.36581       -3.02405       -0.04744
S          9.67405       -2.70405        0.05288
C         11.87635       -4.36065       -0.13210
C         13.04186       -4.88563        0.39261
C         13.07163       -6.25927        0.05153
C         11.92185       -6.53187       -0.67670
O         11.21906       -5.35780       -0.79901
C         11.39085       -7.78396       -1.10167
C         10.62382       -8.49609       -0.25528
S         10.29895       -7.90572        1.37534
C          9.83399       -9.71306       -0.54049
C          9.95239      -10.48126       -1.62865
N          8.92078       -9.93660        0.47402
C          8.90464       -8.97996        1.46450
C          8.01713       -8.77321        2.44508
C          8.08881       -7.69189        3.37595
N          8.12310       -6.82893        4.15185
C          6.98371       -9.82795        2.80558
N          6.12641      -10.70295        3.10465
H         -0.46445       -3.67997       -0.04139
H         -1.76637       -4.76986        1.71996
H         -1.45613       -4.10968        4.09287
H          0.24950       -2.40667        4.68009
H          1.45409       -1.18254        2.91772
H         -1.67212       -1.27478        0.05618
H         -3.06751       -1.24220       -1.95200
H         -2.02195       -1.10192       -4.19902
H          0.44860       -1.03896       -4.40478
H          1.87726       -1.20464       -2.41408
H          0.68371        1.25574       -0.41563
H          1.24398        3.29552       -1.63185
H          3.59066        3.72945       -2.31880
H          5.35536        2.21741       -1.62462
H          5.52835       -1.67385        1.31370
H          3.24316       -2.47908        1.37148
H          6.84204        2.61070        0.09441
H          9.44496        1.96846        0.01004
H         15.27259        0.59599        0.18159
H         14.92757        0.39526       -1.54553
H         14.26012        1.80432       -0.67601
H         13.77090       -4.35051        0.98602
H         13.80846       -6.98599        0.36564
H         11.53038       -8.06706       -2.13561
H         10.68311      -10.28457       -2.40340
H          9.32122      -11.35693       -1.76506
H          8.16124      -10.58588        0.33320
