83

N          1.08268       -1.41506        0.25359
C          0.58808       -2.28501        1.30874
C         -0.23676       -3.39444        1.00290
C         -0.96478       -4.06302        1.99086
C         -0.80956       -3.70078        3.32209
C          0.11028       -2.71057        3.66327
C          0.79969       -2.00340        2.66702
C          0.28280       -1.28207       -0.96291
C         -1.13023       -1.27789       -0.88719
C         -1.92760       -1.24815       -2.03646
C         -1.32880       -1.15881       -3.28501
C          0.05955       -1.11154       -3.38662
C          0.85669       -1.18770       -2.23533
C          2.41410       -0.77116        0.35057
C          2.71250        0.51633       -0.21610
C          1.71343        1.44749       -0.59527
C          2.00118        2.63766       -1.26642
C          3.30891        2.92406       -1.61032
C          4.32526        2.07555       -1.17911
C          4.07496        0.91767       -0.39837
C          5.11808        0.15024        0.19585
C          4.78070       -1.01515        0.89979
C          3.46754       -1.48857        0.94275
C          6.53903        0.54157        0.17337
C          7.23801        1.72867        0.20395
C          8.61740        1.39518        0.17214
C          8.71526        0.01454        0.15381
O          7.43417       -0.49108        0.14791
C          9.87629       -0.84044        0.13983
C         11.21839       -0.55658        0.11012
C         12.07825        0.60218        0.04257
O         11.74503        1.77465        0.06660
N         13.35927        0.09122       -0.08340
C         14.52506        0.89189       -0.34980
C         13.41661       -1.28806       -0.03807
O         14.40466       -2.00013       -0.09157
C         12.04404       -1.70397        0.06179
C         11.36703       -2.88768        0.02278
S          9.67492       -2.57124        0.11378
C         11.88054       -4.21895       -0.11165
C         13.04284       -4.75960        0.40382
C         13.08439       -6.11639        0.00535
C         11.93748       -6.36838       -0.73333
O         11.23276       -5.19210       -0.82358
C         11.40580       -7.61217       -1.18303
C         10.65938       -8.35175       -0.34213
S         10.35520       -7.78768        1.30635
C          9.89550       -9.58253       -0.61978
C          9.98889      -10.32671       -1.72903
N          9.03952       -9.86521        0.42968
C          9.04161       -8.94583        1.45452
C          8.22481       -8.82804        2.50947
C          8.31613       -7.78221        3.47708
N          8.36920       -6.94886        4.28365
C          7.24375       -9.92631        2.88594
N          6.42989      -10.83742        3.19825
H         -0.37121       -3.71318       -0.02893
H         -1.67032       -4.84178        1.71106
H         -1.40198       -4.18964        4.09137
H          0.26380       -2.45813        4.70937
H          1.46325       -1.19877        2.96895
H         -1.63265       -1.32974        0.07628
H         -3.00985       -1.30187       -1.94591
H         -1.94311       -1.13124       -4.18219
H          0.52949       -1.02658       -4.36448
H          1.93987       -1.17859       -2.35739
H          0.66929        1.25350       -0.35257
H          1.20168        3.31858       -1.53907
H          3.54672        3.81466       -2.18508
H          5.33631        2.33562       -1.48142
H          5.55602       -1.58799        1.40536
H          3.29098       -2.44430        1.42946
H          6.82049        2.72497        0.25073
H          9.43284        2.10239        0.17830
H         15.26768        0.72105        0.43409
H         14.95358        0.56508       -1.30344
H         14.27151        1.95257       -0.41041
H         13.76130       -4.24813        1.02963
H         13.81949       -6.85330        0.29823
H         11.54642       -7.87930       -2.22163
H         10.66989      -10.08632       -2.53708
H          9.38127      -11.21735       -1.85881
H          8.31797      -10.56865        0.32609
