83

N          1.21696       -3.69575        0.48179
C          0.74339       -4.86527        1.21541
C         -0.29399       -5.68253        0.72007
C         -0.79140       -6.76643        1.45217
C         -0.21516       -7.10507        2.67065
C          0.84932       -6.35356        3.15947
C          1.30649       -5.23308        2.45285
C          0.30946       -2.98061       -0.40999
C         -1.06599       -2.87390       -0.12307
C         -1.96898       -2.34580       -1.05305
C         -1.50842       -1.84234       -2.26462
C         -0.14450       -1.84409       -2.53455
C          0.75113       -2.41808       -1.62459
C          2.63367       -3.36179        0.48713
C          3.07521       -2.02490        0.38514
C          4.43959       -1.69847        0.23476
C          5.39142       -2.73518        0.24210
C          4.97294       -4.05708        0.42254
C          3.61552       -4.36558        0.53303
C          6.74906       -2.43177        0.07234
C          7.19968       -1.10997       -0.07348
C          6.24896       -0.08543       -0.08843
C          4.88531       -0.37579        0.06135
C          8.62912       -0.82931       -0.15684
C          9.41388        0.29982       -0.25055
C         10.76424       -0.14482       -0.22004
C         10.74097       -1.52470       -0.12030
O          9.43549       -1.92392       -0.08774
C         11.81121       -2.47756       -0.06391
C         13.07292       -2.42450       -0.58174
C         13.85022       -1.51483       -1.38155
O         13.51879       -0.40844       -1.76983
N         15.02784       -2.19701       -1.64197
C         16.03969       -1.72194       -2.54605
C         15.08919       -3.45087       -1.05697
O         15.99292       -4.26472       -1.11974
C         13.82330       -3.60208       -0.38817
C         13.15214       -4.59414        0.27015
S         11.57308       -4.02697        0.68280
C         13.57059       -5.92876        0.58442
C         14.82870       -6.39129        0.91668
C         14.70998       -7.77843        1.17309
C         13.38141       -8.12583        0.98169
O         12.70576       -6.99021        0.60232
C         12.70703       -9.35722        1.24468
C         12.24513       -9.61661        2.48013
S         12.50218       -8.47679        3.80283
C         11.33284      -10.69104        2.90478
C         11.09047      -11.82096        2.22457
N         10.72330      -10.35919        4.10240
C         11.06134       -9.11711        4.59810
C         10.45439       -8.35946        5.52941
C         10.92569       -6.93329        5.76245
N         11.31667       -5.75016        5.95578
C          9.39566       -8.85676        6.32947
N          8.55974       -9.29564        7.00418
H         -0.73679       -5.48621       -0.25338
H         -1.62567       -7.34471        1.06310
H         -0.59209       -7.95408        3.23517
H          1.32089       -6.63090        4.09889
H          2.11324       -4.64753        2.88685
H         -1.45944       -3.23913        0.82279
H         -3.03314       -2.34278       -0.83191
H         -2.20945       -1.44969       -2.99643
H          0.22688       -1.42449       -3.46601
H          1.80075       -2.44533       -1.90504
H          2.34077       -1.22183        0.39375
H          5.70051       -4.86534        0.45995
H          3.33870       -5.41256        0.62380
H          7.47196       -3.24673        0.06375
H          6.55344        0.95153       -0.20562
H          4.17075        0.44457        0.04417
H          9.06764        1.32167       -0.31045
H         11.64676        0.47969       -0.25362
H         16.99690       -1.67131       -2.02234
H         16.13012       -2.44416       -3.36357
H         15.77592       -0.74310       -2.95295
H         15.72422       -5.79138        1.00386
H         15.49050       -8.43975        1.52291
H         12.47397       -9.98891        0.40023
H         11.59030      -12.05298        1.29058
H         10.39559      -12.56614        2.59979
H          9.88664      -10.85325        4.39689
