83

N          0.97742       -0.92296        0.94712
C          0.56757       -1.94814        1.90221
C         -0.49075       -2.83729        1.60325
C         -1.10010       -3.61111        2.59348
C         -0.59924       -3.58846        3.88811
C          0.54096       -2.83851        4.17221
C          1.11896       -2.02122        3.19044
C         -0.03045       -0.41538        0.02030
C         -1.36926       -0.24082        0.43758
C         -2.36859        0.16655       -0.44855
C         -2.04249        0.46636       -1.76500
C         -0.72177        0.35018       -2.19345
C          0.27205       -0.10055       -1.31533
C          2.37624       -0.49263        0.82984
C          2.75830        0.84361        0.45702
C          1.89294        1.96121        0.57072
C          2.23022        3.22711        0.08725
C          3.43200        3.40770       -0.57198
C          4.34026        2.35518       -0.62562
C          4.07800        1.09982       -0.02253
C          5.07752        0.10440        0.13051
C          4.71858       -1.13159        0.69883
C          3.39323       -1.44512        0.98818
C          6.51753        0.34565       -0.11476
C          7.31040        1.43569        0.19859
C          8.70211        1.11992        0.13655
C          8.91962       -0.20862       -0.17532
S          7.49006       -0.86952       -0.84986
C         10.10565       -0.99736        0.05643
C         10.20663       -2.29539        0.48864
C          9.31062       -3.37685        0.83802
O          8.09531       -3.40739        0.75230
N         10.13842       -4.35777        1.34867
C          9.63990       -5.58526        1.92216
C         11.46923       -4.01378        1.38046
O         12.41122       -4.66502        1.80959
C         11.52019       -2.68858        0.82913
C         12.46112       -1.71215        0.67266
S         11.69829       -0.31871       -0.01310
C         13.85584       -1.69863        1.01516
C         14.80570       -2.70038        0.99478
C         16.05022       -2.11543        1.36517
C         15.82393       -0.76964        1.61547
O         14.47079       -0.57016        1.46419
C         16.72124        0.28085        1.99556
C         16.50590        1.56171        1.63666
S         15.18503        2.02803        0.55940
C         17.13388        2.77953        2.19114
C         18.33021        2.83898        2.79049
N         16.28548        3.86775        2.02420
C         15.07664        3.55415        1.43198
C         13.89770        4.20258        1.46611
C         12.63470        3.53386        0.94837
N         11.58694        2.97910        0.51887
C         13.80864        5.53312        1.94403
N         13.77954        6.64225        2.28835
H         -0.89913       -2.88762        0.59537
H         -1.98057       -4.20193        2.35352
H         -1.09508       -4.15419        4.67262
H          0.95947       -2.85664        5.17503
H          1.97048       -1.40557        3.46498
H         -1.65384       -0.44382        1.46808
H         -3.39643        0.24525       -0.10470
H         -2.81547        0.79256       -2.45578
H         -0.46153        0.60172       -3.21819
H          1.28538       -0.20535       -1.69444
H          0.93168        1.85155        1.06901
H          1.54106        4.05789        0.20665
H          3.68307        4.36729       -1.01470
H          5.27739        2.53245       -1.14993
H          5.47883       -1.88349        0.91052
H          3.17311       -2.45439        1.32469
H          6.93436        2.37192        0.59223
H          9.47085        1.79678        0.47875
H         10.12882       -6.43090        1.43008
H          9.90400       -5.59954        2.98299
H          8.55528       -5.66224        1.81309
H         14.63534       -3.73133        0.71254
H         17.00895       -2.61260        1.41173
H         17.53442        0.02044        2.66519
H         18.97061        1.97188        2.89754
H         18.71687        3.77898        3.17239
H         16.40353        4.68548        2.61063
