83

N          1.17770       -1.37518        0.39632
C          0.68526       -2.21226        1.49236
C         -0.18518       -3.30036        1.24486
C         -0.92016       -3.90200        2.27048
C         -0.71957       -3.50300        3.58466
C          0.25815       -2.55188        3.87112
C          0.95126       -1.90630        2.83586
C          0.33479       -1.26245       -0.79676
C         -1.07688       -1.24556       -0.68888
C         -1.90714       -1.23543       -1.81404
C         -1.34702       -1.18459       -3.08326
C          0.03910       -1.14828       -3.22158
C          0.87201       -1.19920       -2.09319
C          2.51834       -0.76001        0.43941
C          2.83625        0.50190       -0.17789
C          1.85223        1.45024       -0.55878
C          2.15620        2.61189       -1.27246
C          3.45981        2.85123       -1.66057
C          4.46515        1.98856       -1.23171
C          4.20575        0.86303       -0.40697
C          5.24763        0.09270        0.18625
C          4.89695       -1.03585        0.94155
C          3.57309       -1.47421        1.03513
C          6.67802        0.45336        0.12467
C          7.39608        1.63216        0.11240
C          8.76873        1.27883        0.07936
C          8.84507       -0.10509        0.10673
O          7.56119       -0.59420        0.12076
C         10.00826       -0.95692        0.14712
C         10.08501       -2.32228        0.23882
C          9.18098       -3.44172        0.36382
O          7.96279       -3.42858        0.33100
N         10.00876       -4.53734        0.55813
C          9.53934       -5.84626        0.92621
C         11.35626       -4.24453        0.48144
O         12.29968       -5.01251        0.56214
C         11.40638       -2.81948        0.31007
C         12.37711       -1.86137        0.29302
S         11.62429       -0.31063        0.15834
C         13.80105       -2.00544        0.40090
C         14.62763       -3.01371       -0.05322
C         15.95901       -2.64938        0.27946
C         15.91226       -1.41685        0.91179
O         14.58185       -1.08246        1.02855
C         16.97798       -0.58800        1.38367
C         16.90784        0.75798        1.38077
S         15.51461        1.63027        0.70926
C         17.90640        1.71504        1.90333
C         19.12022        1.40337        2.38029
N         17.41761        3.00631        1.83889
C         16.15023        3.15678        1.31013
C         15.40581        4.27573        1.20446
C         14.08129        4.28026        0.66223
N         12.99726        4.29493        0.23590
C         15.91849        5.51180        1.66217
N         16.37650        6.50661        2.04737
H         -0.35561       -3.64965        0.22793
H         -1.66704       -4.65573        2.03270
H         -1.31996       -3.93354        4.38222
H          0.45381       -2.27884        4.90480
H          1.66056       -1.12721        3.09816
H         -1.55485       -1.26684        0.28842
H         -2.98679       -1.27183       -1.69179
H         -1.98812       -1.17125       -3.96112
H          0.47889       -1.09181       -4.21404
H          1.94732       -1.19660       -2.24832
H          0.81212        1.29366       -0.27941
H          1.36849        3.31018       -1.54086
H          3.70679        3.71683       -2.26967
H          5.47483        2.21338       -1.56560
H          5.67225       -1.61091        1.44738
H          3.38898       -2.40480        1.56505
H          6.99247        2.63462        0.14115
H          9.60682        1.96378        0.06748
H          9.89755       -6.57790        0.19735
H          9.97009       -6.09839        1.90158
H          8.44990       -5.87274        0.99408
H         14.31360       -3.90033       -0.58540
H         16.85525       -3.20458        0.04157
H         17.86281       -1.09697        1.74992
H         19.49399        0.38693        2.42105
H         19.79493        2.17230        2.74388
H         17.94688        3.78027        2.22274
