86

C         -0.86060        1.14882        0.37684
C          0.50749        1.34601        0.16537
C          1.31306        0.20449        0.04058
C          0.73605       -1.08303        0.02443
C         -0.65392       -1.27206        0.14276
C         -1.42735       -0.13081        0.38408
N         -1.29351       -2.56432       -0.03942
C         -0.59816       -3.78700        0.32540
C          0.21579       -3.85671        1.47123
C          0.91479       -5.02635        1.79540
C          0.79479       -6.16003        0.99579
C         -0.02271       -6.12614       -0.12828
C         -0.70213       -4.95094       -0.46334
C         -2.56189       -2.64856       -0.76063
C         -2.86549       -1.78528       -1.82841
C         -4.04383       -1.93313       -2.57723
C         -4.95757       -2.96027       -2.29595
C         -4.69040       -3.81826       -1.20879
C         -3.51532       -3.63757       -0.44577
C         -5.59557       -4.85236       -0.92077
C         -6.75442       -5.03089       -1.68431
C         -7.03740       -4.17686       -2.75120
C         -6.12529       -3.15734       -3.06191
C         -8.29018       -4.35440       -3.56096
C          1.01815        2.71095        0.03120
C          0.40281        3.94762        0.05977
C          1.40125        4.91094       -0.19791
C          2.58997        4.22928       -0.38323
O          2.34725        2.88133       -0.22554
C          3.88891        4.76455       -0.67337
C          4.26035        5.91637       -1.31582
C          3.61838        7.01267       -2.00058
O          2.41991        7.21111       -2.11073
N          4.65783        7.77674       -2.50244
C          4.47133        8.90876       -3.37529
C          5.91395        7.30679       -2.15308
O          6.99766        7.79661       -2.41443
C          5.66041        6.09605       -1.40767
C          6.38544        5.08546       -0.83439
S          5.30212        3.89834       -0.19741
C          7.79993        4.88308       -0.72002
C          8.82388        5.80859       -0.70192
C         10.03423        5.08605       -0.57272
C          9.71761        3.73469       -0.55616
O          8.35097        3.63141       -0.60020
C         10.59677        2.61543       -0.65404
C         10.95054        2.15762       -1.87471
S         10.30670        2.91622       -3.32892
C         11.98431        1.16556       -2.22681
C         12.54641        0.29724       -1.38028
N         12.31428        1.26898       -3.56496
C         11.66274        2.27172       -4.25430
C         11.89823        2.79198       -5.47096
C         11.08126        3.98645       -5.93592
N         10.40351        4.97737       -6.32165
C         12.81375        2.07112       -6.44696
N         13.57325        1.47310       -7.25663
H         -1.53036        1.99770        0.50621
H          2.38696        0.30261       -0.08664
H          1.39870       -1.93258       -0.13235
H         -2.50130       -0.21681        0.54186
H          0.31561       -2.99564        2.12777
H          1.55479       -5.04971        2.67387
H          1.33857       -7.06736        1.24580
H         -0.12719       -7.00749       -0.75583
H         -1.30613       -4.95355       -1.36758
H         -2.17443       -0.99651       -2.11676
H         -4.22990       -1.24529       -3.39903
H         -3.33240       -4.29724        0.39966
H         -5.40317       -5.53666       -0.09888
H         -7.43411       -5.84171       -1.43140
H         -6.32804       -2.50775       -3.91095
H         -8.82247       -3.40155       -3.64973
H         -8.05391       -4.73024       -4.56122
H         -8.97544       -5.06433       -3.08398
H         -0.64668        4.13925        0.22763
H          1.26311        5.98169       -0.24481
H          4.95034        9.78983       -2.93916
H          4.95982        8.69192       -4.33108
H          3.41012        9.10574       -3.54936
H          8.71891        6.88121       -0.78878
H         11.03413        5.49634       -0.58265
H         11.01980        2.21711        0.25483
H         12.26027        0.23484       -0.33506
H         13.31104       -0.39957       -1.71238
H         13.13601        0.79914       -3.93028
