71

C          1.81032       -1.24028        0.44204
C          2.63357       -0.08932        0.48640
C          2.12040        1.12827       -0.00972
C          0.82966        1.15598       -0.52683
C          0.00213        0.02597       -0.46143
C          0.48425       -1.18337       -0.00399
N         -1.29099        0.22588       -1.05892
C         -2.22784        0.70492       -0.01416
C         -0.94053        1.29953       -2.02081
C         -0.23743        0.74735       -3.29247
C          1.04272        1.57871       -3.44917
C          0.83471        2.78582       -2.54010
C          0.11272        2.20712       -1.33511
C          4.00321       -0.17557        1.00921
C          5.00361        0.73382        1.27062
C          6.11046        0.00428        1.77801
C          5.75184       -1.33825        1.79944
O          4.45562       -1.42538        1.33599
C          6.50900       -2.50574        2.17755
C          7.80580       -2.68009        2.59617
C          8.97592       -1.87478        2.86521
O          9.05989       -0.65939        2.81886
N          9.97979       -2.78359        3.16107
C         11.36121       -2.42556        3.36761
C          9.56280       -4.10488        3.14689
O         10.22761       -5.09523        3.39744
C          8.17486       -4.03936        2.75956
C          7.17750       -4.92691        2.47089
S          5.74175       -4.06242        2.08388
C          7.22107       -6.35757        2.43603
C          6.22134       -7.26995        2.71560
C          6.79833       -8.55858        2.61969
C          8.12387       -8.39442        2.24565
O          8.35077       -7.04734        2.09751
C          9.17617       -9.35342        2.18773
C          9.91408       -9.58795        3.28939
S          9.54847       -8.74904        4.80206
C         11.10147      -10.44646        3.44157
C         11.62624      -11.22729        2.48481
N         11.63097      -10.32607        4.71214
C         11.00507       -9.40274        5.52326
C         11.34615       -8.96765        6.74251
C         10.62732       -7.97057        7.47170
N         10.06755       -7.16492        8.10231
C         12.47937       -9.60558        7.52945
N         13.41947      -10.13479        8.18228
H          2.20961       -2.20754        0.74209
H          2.73318        2.02293       -0.04378
H         -0.12473       -2.07890       -0.06190
H         -2.74720        1.61746       -0.33784
H         -2.99523       -0.05015        0.17403
H         -1.73928        0.94918        0.93894
H         -1.82801        1.86111       -2.34008
H         -0.88514        0.87791       -4.16567
H          0.00201       -0.32189       -3.23268
H          1.90928        1.00130       -3.10270
H          1.23351        1.86042       -4.48757
H          1.76584        3.29726       -2.28860
H          0.17405        3.50354       -3.04674
H         -0.34522        2.96080       -0.68605
H          4.95526        1.80354        1.11824
H          7.05878        0.41279        2.07865
H         11.68735       -2.77696        4.35091
H         11.96464       -2.93501        2.60868
H         11.50976       -1.34637        3.28430
H          5.21184       -7.02928        3.02042
H          6.32751       -9.49725        2.87702
H          9.39172       -9.81357        1.23368
H         11.19100      -11.30185        1.49524
H         12.51390      -11.82182        2.66979
H         12.52889      -10.72996        4.93804
