83

N          1.24062       -1.42956        0.17197
C          0.72730       -2.27688        1.24826
C         -0.10974       -3.38247        0.96731
C         -0.86846       -4.00085        1.96437
C         -0.72605       -3.59747        3.28483
C          0.21767       -2.62382        3.60799
C          0.93625       -1.96416        2.60001
C          0.43828       -1.32923       -1.04845
C         -0.97593       -1.33259       -0.98844
C         -1.76591       -1.33237       -2.14172
C         -1.16202       -1.27004       -3.39046
C          0.22744       -1.21368       -3.48082
C          1.02058       -1.25603       -2.32456
C          2.56269       -0.78577        0.26354
C          2.86977        0.48804       -0.33352
C          1.87633        1.41311       -0.73927
C          2.17463        2.58364       -1.44174
C          3.48539        2.85566       -1.78747
C          4.49416        2.01806       -1.33161
C          4.23555        0.88524       -0.52054
C          5.27406        0.12623        0.08888
C          4.92992       -1.01599        0.82681
C          3.61539       -1.48395        0.88156
C          6.70135        0.49987        0.04503
C          7.42501        1.67637        0.02916
C          8.79903        1.32087       -0.02223
C          8.86424       -0.06197        0.01055
O          7.58054       -0.54857        0.04734
C         10.00851       -0.92954        0.02177
C         11.25669       -0.77450       -0.51940
C         11.95867        0.18499       -1.33622
O         11.54548        1.26719       -1.71527
N         13.17925       -0.41181       -1.60998
C         14.14962        0.11598       -2.53345
C         13.34845       -1.64320       -1.00327
O         14.32237       -2.37511       -1.04669
C         12.10435       -1.88614       -0.32461
C         11.52363       -2.92627        0.34222
S          9.91166       -2.49001        0.77769
C         12.05665       -4.22336        0.63379
C         13.35184       -4.57856        0.95636
C         13.36129       -5.97858        1.15857
C         12.06625       -6.43715        0.96202
O         11.28993       -5.35658        0.61956
C         11.50577       -7.72172        1.22878
C         11.11973       -8.02695        2.47919
S         11.33494       -6.84774        3.78263
C         10.38153       -9.20829        2.96050
C         10.15553      -10.33301        2.26799
N          9.91217       -8.98370        4.24729
C         10.18334       -7.73271        4.76510
C          9.72908       -7.14614        5.87762
C         10.05750       -5.81103        6.26472
N         10.31524       -4.73050        6.60190
C          8.98908       -7.93869        6.94283
N          8.37519       -8.59618        7.82651
H         -0.23599       -3.73190       -0.05599
H         -1.58921       -4.77039        1.69870
H         -1.34632       -4.04136        4.05942
H          0.36517       -2.34460        4.64797
H          1.61659       -1.16823        2.88753
H         -1.48641       -1.36116       -0.02778
H         -2.84846       -1.38517       -2.05730
H         -1.77179       -1.26285       -4.29036
H          0.70081       -1.14772       -4.45712
H          2.10054       -1.23759       -2.44104
H          0.83208        1.22543       -0.50273
H          1.37747        3.25759       -1.73876
H          3.72455        3.73310       -2.38501
H          5.50558        2.26802       -1.63571
H          5.70443       -1.57726        1.34967
H          3.43603       -2.42329        1.39743
H          7.02506        2.68033        0.05356
H          9.64162        1.99690       -0.04930
H         15.11033        0.22802       -2.02355
H         14.27838       -0.60840       -3.34525
H         13.82330        1.07202       -2.94793
H         14.18898       -3.90287        1.06661
H         14.19791       -6.57688        1.49208
H         11.31481       -8.37593        0.38916
H         10.53365      -10.47761        1.26250
H          9.59068      -11.15208        2.70119
H          9.22347       -9.60554        4.65426
