83

N          1.20826       -1.48356        0.15507
C          0.70261       -2.32694        1.23677
C         -0.12321       -3.44310        0.96410
C         -0.85695       -4.07722        1.96982
C         -0.70382       -3.67422        3.28933
C          0.22030       -2.67846        3.60174
C          0.91423       -2.00510        2.58589
C          0.40448       -1.39666       -1.06384
C         -1.00890       -1.39828       -0.99861
C         -1.80147       -1.40683       -2.14932
C         -1.20029       -1.35393       -3.39998
C          0.18880       -1.30034       -3.49556
C          0.98465       -1.33556       -2.34161
C          2.52855       -0.83618        0.23668
C          2.82685        0.43304       -0.37276
C          1.82519        1.34916       -0.78426
C          2.11256        2.51579       -1.49464
C          3.41907        2.79443       -1.84499
C          4.43807        1.96361       -1.38536
C          4.18943        0.83154       -0.56637
C          5.23397        0.08690        0.05419
C          4.89505       -1.05023        0.80290
C          3.58333       -1.52494        0.86008
C          6.65544        0.47276        0.01469
C          7.35936        1.65806        0.00918
C          8.73716        1.31833       -0.01707
C          8.83081       -0.06279       -0.00280
O          7.54791       -0.56361        0.01264
C          9.98958       -0.92206       -0.00643
C         11.33185       -0.64431       -0.07029
C         12.19205        0.50984       -0.19233
O         11.86175        1.68335       -0.19449
N         13.46866       -0.00788       -0.33146
C         14.62790        0.78371       -0.65206
C         13.52519       -1.38504       -0.24184
O         14.51101       -2.10080       -0.29285
C         12.15398       -1.79553       -0.09894
C         11.47331       -2.97815       -0.08129
S          9.78328       -2.65170        0.02946
C         11.97574       -4.31796       -0.17280
C         13.14823       -4.84739        0.33241
C         13.16252       -6.22352        0.00275
C         12.00036       -6.49461       -0.70784
O         11.30126       -5.31646       -0.82311
C         11.45633       -7.74549       -1.11712
C         10.70229       -8.45656       -0.26104
S         10.39402       -7.84768        1.37091
C          9.89931       -9.66259       -0.52356
C         10.01068      -10.45600       -1.60254
N          8.98660       -9.86604        0.49593
C          8.98416       -8.89304        1.47503
C          8.10077       -8.66008        2.45469
C          8.17882       -7.55696        3.35488
N          8.21837       -6.66621        4.10752
C          7.06739       -9.70572        2.84087
N          6.21011      -10.57318        3.16124
H         -0.25626       -3.79378       -0.05788
H         -1.56475       -4.86147        1.71250
H         -1.30075       -4.13582        4.07182
H          0.37362       -2.39565        4.63993
H          1.58046       -1.19426        2.86506
H         -1.51508       -1.41769       -0.03551
H         -2.88376       -1.45786       -2.06118
H         -1.81293       -1.35272       -4.29787
H          0.65946       -1.24181       -4.47353
H          2.06460       -1.32041       -2.46012
H          0.78267        1.16011       -0.53568
H          1.31045        3.18637       -1.78976
H          3.65563        3.66597       -2.44945
H          5.44915        2.21835       -1.69189
H          5.67097       -1.60158        1.33296
H          3.40790       -2.46174        1.38229
H          6.94556        2.65659        0.03066
H          9.55554        2.02258       -0.03138
H         15.38915        0.64008        0.11915
H         15.03393        0.42552       -1.60433
H         14.37200        1.84172       -0.74268
H         13.89197       -4.31408        0.90878
H         13.89795       -6.95416        0.30804
H         11.58305       -8.03642       -2.15561
H         10.73976      -10.27789       -2.38174
H          9.37119      -11.32257       -1.72680
H          8.21319      -10.50704        0.36378
