83

N          1.14545       -1.31159        0.21619
C          0.64426       -2.15785        1.30076
C         -0.23060       -3.23857        1.03698
C         -0.97255       -3.84875        2.05220
C         -0.77433       -3.46721        3.37184
C          0.20599       -2.52334        3.67341
C          0.90556       -1.86802        2.64866
C          0.30886       -1.18268       -0.97953
C         -1.10306       -1.16057       -0.87782
C         -1.92801       -1.13767       -2.00662
C         -1.36317       -1.07644       -3.27266
C          0.02382       -1.04756       -3.40444
C          0.85206       -1.10955       -2.27274
C          2.48775       -0.70194        0.27166
C          2.81101        0.56621       -0.32937
C          1.82942        1.52010       -0.70402
C          2.13687        2.68729       -1.40596
C          3.44281        2.93070       -1.78275
C          4.44508        2.06167       -1.36114
C          4.18169        0.92721       -0.55208
C          5.21894        0.14636        0.03587
C          4.86364       -0.99043        0.77663
C          3.53855       -1.42630        0.86212
C          6.64978        0.50419       -0.01702
C          7.36785        1.68296       -0.01211
C          8.73945        1.32972       -0.05205
C          8.81781       -0.05261       -0.03818
O          7.53412       -0.54329       -0.03235
C          9.98088       -0.90246       -0.01378
C         10.05654       -2.27295        0.06077
C          9.15254       -3.39429        0.16890
O          7.93442       -3.38074        0.13480
N          9.98011       -4.49241        0.34917
C          9.50965       -5.80476        0.70399
C         11.32781       -4.19828        0.27761
O         12.27141       -4.96748        0.34407
C         11.37824       -2.77038        0.12828
C         12.34805       -1.81102        0.12637
S         11.59408       -0.25945        0.00827
C         13.77200       -1.95227        0.23401
C         14.60487       -2.94810       -0.23537
C         15.93436       -2.57762        0.09680
C         15.87970       -1.35451        0.74634
O         14.54714       -1.03364        0.87426
C         16.93871       -0.52458        1.23004
C         16.85212        0.81997        1.26043
S         15.44378        1.69427        0.63084
C         17.84953        1.77216        1.78836
C         19.07287        1.45915        2.23864
N         17.35277        3.06679        1.75966
C         16.07755        3.22023        1.24649
C         15.30914        4.33085        1.17283
C         13.97953        4.30537        0.64890
N         12.89177        4.27990        0.24155
C         15.81034        5.57582        1.63364
N         16.24466        6.58119        2.01565
H         -0.39902       -3.57452        0.01523
H         -1.72257       -4.59529        1.80209
H         -1.37888       -3.90559        4.16192
H          0.39869       -2.26359        4.71105
H          1.61606       -1.09406        2.92274
H         -1.58549       -1.18810        0.09714
H         -3.00806       -1.17366       -1.88977
H         -1.99817       -1.05245       -4.15343
H          0.46972       -0.97642       -4.39334
H          1.92858       -1.10857       -2.42268
H          0.78813        1.36203       -0.42849
H          1.35133        3.39138       -1.66469
H          3.69182        3.80346       -2.38004
H          5.45510        2.28635       -1.69229
H          5.63664       -1.57235        1.27882
H          3.35014       -2.36226        1.38103
H          6.96499        2.68520        0.02426
H          9.57875        2.01402       -0.05721
H          9.86689       -6.52986       -0.03160
H          9.94064       -6.06596        1.67694
H          8.42023       -5.83102        0.77293
H         14.29634       -3.82922       -0.77942
H         16.83416       -3.12066       -0.15465
H         17.83347       -1.03191        1.57537
H         19.45158        0.44591        2.25092
H         19.74773        2.22563        2.61204
H         17.88412        3.83664        2.15732
