83

N          1.06096       -1.39653        0.23571
C          0.56048       -2.25519        1.30915
C         -0.27527       -3.36174        1.02702
C         -1.01158       -4.00089        2.02816
C         -0.84884       -3.61626        3.35191
C          0.08935       -2.63647        3.67247
C          0.78466       -1.95622        2.66169
C          0.24644       -1.28764       -0.97576
C         -1.16700       -1.29351       -0.90089
C         -1.96900       -1.28672       -2.04574
C         -1.37832       -1.21372       -3.30019
C          0.00996       -1.15428       -3.40491
C          0.81528       -1.20441       -2.25748
C          2.38461       -0.75340        0.31776
C          2.68443        0.52368       -0.27557
C          1.68568        1.45184       -0.66412
C          1.97569        2.62864       -1.35763
C          3.28024        2.90279       -1.71871
C          4.29718        2.05891       -1.28160
C          4.04745        0.92025       -0.47304
C          5.09289        0.16886        0.13442
C          4.75463       -0.97759        0.86881
C          3.44192       -1.45163        0.92624
C          6.51557        0.55337        0.08917
C          7.23023        1.73519        0.07499
C          8.60993        1.38894        0.02927
C          8.67926        0.00346        0.06436
O          7.40076       -0.48692        0.09390
C          9.82733       -0.85559        0.08991
C         11.08226       -0.70228       -0.43405
C         11.79517        0.25485       -1.24470
O         11.39107        1.34053       -1.62359
N         13.01359       -0.34928       -1.51231
C         13.98858        0.16416       -2.43887
C         13.17556       -1.57788       -0.89868
O         14.14980       -2.31021       -0.93067
C         11.92481       -1.81704       -0.23144
C         11.33212       -2.85746        0.42417
S          9.71899       -2.41506        0.84698
C         11.84813       -4.16217        0.71059
C         13.14426       -4.54595        0.99390
C         13.12958       -5.94602        1.19380
C         11.81632       -6.37021        1.06051
O         11.05500       -5.27684        0.73214
C         11.24271       -7.64193        1.34553
C         10.85382       -7.93377        2.60135
S         11.06826       -6.76467        3.92116
C         10.15714       -9.14494        3.08150
C          9.92805      -10.25431        2.36020
N          9.78613       -8.98568        4.40400
C         10.11425       -7.78459        4.99762
C          9.79599       -7.33179        6.23066
C         10.17489       -6.03504        6.68743
N         10.48096       -4.97514        7.04914
C          9.05769       -8.14528        7.12050
N          8.46024       -8.83816        7.83607
H         -0.41618       -3.69883        0.00150
H         -1.72976       -4.77342        1.76402
H         -1.44914       -4.07938        4.13097
H          0.25162       -2.36988        4.71361
H          1.46120       -1.15692        2.94887
H         -1.66690       -1.33001        0.06498
H         -3.05043       -1.34303       -1.95032
H         -1.99776       -1.20148       -4.19333
H          0.47266       -1.08045       -4.38569
H          1.89397       -1.18513       -2.38521
H          0.64453        1.26625       -0.40768
H          1.17661        3.31112       -1.63232
H          3.51812        3.78105       -2.31278
H          5.30700        2.30962       -1.59539
H          5.53198       -1.53788        1.38727
H          3.26812       -2.39466        1.43761
H          6.82303        2.73588        0.10103
H          9.44560        2.06965        0.00750
H         14.94998        0.27221       -1.92951
H         14.11233       -0.56845       -3.24435
H         13.66942        1.11854       -2.86228
H         14.00059       -3.89083        1.07481
H         13.96628       -6.56632        1.48353
H         11.08134       -8.31422        0.51333
H         10.24096      -10.34402        1.32411
H          9.41092      -11.10179        2.78486
H          9.22514       -9.69109        4.86923
