83

N          1.15841       -1.36211        0.39218
C          0.66129       -2.20393        1.48068
C         -0.20245       -3.29458        1.22180
C         -0.93448       -3.91044        2.24050
C         -0.73942       -3.52036        3.55827
C          0.22650       -2.56002        3.85481
C          0.91765       -1.90168        2.82671
C          0.32401       -1.24619       -0.80491
C         -1.08750       -1.22433       -0.70354
C         -1.91090       -1.21358       -1.83311
C         -1.34294       -1.16274       -3.09898
C          0.04421       -1.12842       -3.23016
C          0.87004       -1.18370       -2.09756
C          2.49773       -0.74854        0.44399
C          2.81491        0.51775       -0.16428
C          1.82948        1.46448       -0.54643
C          2.13274        2.62958       -1.25417
C          3.43737        2.87511       -1.63295
C          4.44344        2.01339       -1.20270
C          4.18376        0.88171       -0.38584
C          5.22394        0.10608        0.20417
C          4.87388       -1.02966        0.94797
C          3.55046       -1.46919        1.03511
C          6.65354        0.46739        0.14561
C          7.37027        1.64687        0.14400
C          8.74279        1.29481        0.10585
C          8.82040       -0.08935        0.12114
O          7.53691       -0.57969        0.13062
C          9.98501       -0.94023        0.15567
C         10.06411       -2.30530        0.24658
C          9.16296       -3.42681        0.37140
O          7.94455       -3.41559        0.34214
N          9.99235       -4.52293        0.55899
C          9.52547       -5.83628        0.90851
C         11.34044       -4.22553        0.48730
O         12.28636       -4.98919        0.57167
C         11.38785       -2.79934        0.31419
C         12.35410       -1.83878        0.29101
S         11.59932       -0.29126        0.15882
C         13.77930       -1.97914        0.39127
C         14.61080       -2.97996       -0.06413
C         15.94473       -2.60677        0.26610
C         15.88881       -1.37546        0.90305
O         14.55703       -1.04854        1.01832
C         16.94481       -0.54777        1.39158
C         16.87459        0.79863        1.40671
S         15.48853        1.68248        0.73121
C         17.84430        1.74577        1.98995
C         19.07096        1.44186        2.43186
N         17.30378        3.02541        2.02444
C         16.03542        3.16082        1.51392
C         15.21243        4.23603        1.54450
C         13.87480        4.19961        1.03808
N         12.78703        4.16463        0.64092
C         15.64570        5.43615        2.13890
N         16.03749        6.41579        2.62449
H         -0.36813       -3.63601        0.20141
H         -1.67398       -4.66873        1.99460
H         -1.33602       -3.96462        4.35107
H          0.41464       -2.29081        4.89085
H          1.61767       -1.11627        3.09545
H         -1.56919       -1.24265        0.27197
H         -2.99107       -1.24920       -1.71663
H         -1.97884       -1.14829       -3.98035
H          0.48991       -1.07070       -4.21972
H          1.94650       -1.18479       -2.24553
H          0.78817        1.30214       -0.27540
H          1.34336        3.32433       -1.52625
H          3.68497        3.74386       -2.23759
H          5.45397        2.24272       -1.53088
H          5.64870       -1.60995        1.44879
H          3.36465       -2.40615        1.55332
H          6.96530        2.64838        0.18309
H          9.58020        1.98064        0.10059
H          9.88789       -6.55685        0.17086
H          9.95310       -6.10058        1.88190
H          8.43585       -5.86579        0.97095
H         14.30499       -3.86643       -0.59696
H         16.84265       -3.15472        0.02529
H         17.82086       -1.05856        1.78037
H         19.47483        0.43799        2.38246
H         19.72302        2.19971        2.84681
H         17.79026        3.77455        2.51447
