83

N          1.05631       -1.46574        0.09625
C          0.52689       -2.32141        1.15425
C         -0.28511       -3.43824        0.84660
C         -1.02870       -4.09786        1.82745
C         -0.90468       -3.71494        3.15632
C         -0.00334       -2.70901        3.50202
C          0.70372       -2.01307        2.51089
C          0.28209       -1.36189       -1.13870
C         -1.13225       -1.35351       -1.10312
C         -1.89756       -1.34706       -2.27132
C         -1.26815       -1.28573       -3.50816
C          0.12313       -1.23907       -3.57212
C          0.89247       -1.29260       -2.40182
C          2.37724       -0.82846        0.21184
C          2.68808        0.45017       -0.37069
C          1.69365        1.37250       -0.78579
C          1.99394        2.54766       -1.47604
C          3.30630        2.82996       -1.79831
C          4.31644        1.99112       -1.33296
C          4.05291        0.84605       -0.53607
C          5.08579        0.08421        0.08306
C          4.73412       -1.06752        0.80212
C          3.41941       -1.53662        0.83362
C          6.50823        0.46571        0.06629
C          7.21436        1.64952        0.09795
C          8.59096        1.30875        0.06587
C          8.68275       -0.07296        0.04139
O          7.39923       -0.57176        0.03881
C          9.84082       -0.93385        0.02034
C         11.18379       -0.65529       -0.02978
C         12.04733        0.49901       -0.11943
O         11.71750        1.67309       -0.10903
N         13.32537       -0.01746       -0.24564
C         14.49273        0.77893       -0.52343
C         13.37828       -1.39615       -0.18529
O         14.36300       -2.11446       -0.23897
C         12.00575       -1.80619       -0.06865
C         11.32556       -2.98915       -0.07009
S          9.63420       -2.66460        0.01538
C         11.83425       -4.32722       -0.15566
C         12.97312       -4.86381        0.41491
C         13.00731       -6.23585        0.06957
C         11.89236       -6.49432       -0.71328
O         11.20315       -5.31406       -0.86125
C         11.37543       -7.73974       -1.17452
C         10.52728       -8.43599       -0.39837
S         10.06417       -7.82441        1.19345
C          9.74415       -9.63502       -0.74499
C          9.95144      -10.42517       -1.80543
N          8.73267       -9.83069        0.18169
C          8.63920       -8.85904        1.15359
C          7.65987       -8.61514        2.03275
C          7.66733       -7.52632        2.95180
N          7.65137       -6.65151        3.72340
C          6.57558       -9.64485        2.30553
N          5.67606      -10.49908        2.53182
H         -0.39549       -3.77191       -0.18378
H         -1.72046       -4.88753        1.54411
H         -1.50718       -4.19989        3.91993
H          0.12269       -2.43782        4.54710
H          1.35260       -1.19644        2.81380
H         -1.65759       -1.37578       -0.15116
H         -2.98213       -1.39300       -2.20802
H         -1.85988       -1.27223       -4.41906
H          0.61663       -1.17152       -4.53866
H          1.97427       -1.28576       -2.49482
H          0.64636        1.18000       -0.56063
H          1.19653        3.22046       -1.77965
H          3.55418        3.70847       -2.38741
H          5.33330        2.24882       -1.61894
H          5.50200       -1.63670        1.32708
H          3.23113       -2.48493        1.33107
H          6.79954        2.64759        0.14580
H          9.41037        2.01204        0.07395
H         15.23623        0.61599        0.26156
H         14.91953        0.44122       -1.47384
H         14.24093        1.83908       -0.59469
H         13.67788       -4.33806        1.04513
H         13.72112       -6.97205        0.41094
H         11.60614       -8.03743       -2.18974
H         10.75660      -10.25094       -2.51063
H          9.32196      -11.28766       -1.99622
H          7.96408      -10.45707       -0.03384
