83

N          1.11349       -1.29958        0.31605
C          0.60639       -2.14512        1.39669
C         -0.25020       -3.23839        1.12557
C         -0.99295       -3.85776        2.13430
C         -0.81691       -3.46766        3.45477
C          0.14218       -2.50467        3.76460
C          0.84489       -1.84371        2.74616
C          0.29150       -1.18329       -0.89006
C         -1.12104       -1.16477       -0.80473
C         -1.93175       -1.15218       -1.94385
C         -1.34986       -1.09749       -3.20317
C          0.03866       -1.06132       -3.31833
C          0.85220       -1.11686       -2.17637
C          2.45045       -0.68197        0.38384
C          2.77050        0.58498       -0.21968
C          1.78559        1.53065       -0.60599
C          2.09147        2.69776       -1.30871
C          3.39862        2.94573       -1.67878
C          4.40310        2.08406       -1.24485
C          4.14040        0.95116       -0.43143
C          5.17807        0.17709        0.16556
C          4.82320       -0.95739        0.91001
C          3.49955       -1.39893        0.98641
C          6.60878        0.54000        0.11560
C          7.32293        1.72069        0.11620
C          8.69654        1.37164        0.08104
C          8.77743       -0.01231        0.09907
O          7.49459       -0.50551        0.10677
C          9.94502       -0.85908        0.13642
C         10.03016       -2.22481        0.21903
C          9.13316       -3.35119        0.33353
O          7.91426       -3.34375        0.30540
N          9.96715       -4.44454        0.51358
C          9.50516       -5.76333        0.85522
C         11.31319       -4.14160        0.44655
O         12.26137       -4.90379        0.52550
C         11.35511       -2.71451        0.28893
C         12.32074       -1.75050        0.28010
S         11.55789       -0.20381        0.15369
C         13.74477       -1.88334        0.39249
C         14.58290       -2.88214       -0.06748
C         15.90896       -2.51324        0.27609
C         15.85113       -1.28699        0.92372
O         14.51630       -0.96257        1.03092
C         16.90671       -0.46151        1.41819
C         16.83412        0.88477        1.43450
S         15.45013        1.76439        0.76032
C         17.82027        1.83507        1.98614
C         19.03277        1.51864        2.47457
N         17.33291        3.12780        1.94160
C         16.06810        3.28139        1.40289
C         15.30632        4.39296        1.33091
C         13.98914        4.38341        0.79194
N         12.90279        4.38041        0.36365
C         15.79767        5.62497        1.82363
N         16.22611        6.62395        2.22556
H         -0.40178       -3.57909        0.10273
H         -1.72629       -4.61873        1.87841
H         -1.42278       -3.91393        4.23933
H          0.31590       -2.23537        4.80311
H          1.53927       -1.05666        3.02445
H         -1.61398       -1.18740        0.16487
H         -3.01323       -1.18874       -1.84007
H         -1.97460       -1.08127       -4.09179
H          0.49604       -1.00237       -4.30245
H          1.93004       -1.11614       -2.31228
H          0.74272        1.36611       -0.34156
H          1.30304        3.39265       -1.58356
H          3.64847        3.81668       -2.27888
H          5.41502        2.31518       -1.56715
H          5.59484       -1.53481        1.41872
H          3.31074       -2.33468        1.50553
H          6.91603        2.72145        0.15204
H          9.53214        2.05972        0.07458
H          9.87604       -6.47910        0.11694
H          9.92978       -6.02870        1.82966
H          8.41543       -5.80027        0.91239
H         14.27805       -3.76713       -0.61043
H         16.81067       -3.05891        0.03934
H         17.78986       -0.97206        1.78923
H         19.40733        0.50179        2.50196
H         19.69370        2.28055        2.86022
H         17.84567        3.89052        2.36237
