83

N          1.13633       -1.39727        0.39598
C          0.63649       -2.23583        1.48554
C         -0.23103       -3.32371        1.22782
C         -0.96515       -3.93632        2.24698
C         -0.76878       -3.54615        3.56445
C          0.20048       -2.58886        3.86015
C          0.89387       -1.93346        2.83144
C          0.30252       -1.27962       -0.80152
C         -1.10961       -1.25461       -0.70142
C         -1.93223       -1.24088       -1.83074
C         -1.36386       -1.19038       -3.09785
C          0.02369       -1.15948       -3.22679
C          0.84870       -1.21810       -2.09446
C          2.47792       -0.78766        0.44685
C          2.79798        0.47766       -0.16074
C          1.81409        1.42721       -0.53960
C          2.11908        2.59249       -1.24577
C          3.42418        2.83522       -1.62703
C          4.42858        1.96988       -1.20069
C          4.16759        0.83851       -0.38416
C          5.20644        0.06137        0.20451
C          4.85439       -1.07440        0.94854
C          3.52951       -1.51069        1.03690
C          6.63716        0.42078        0.14690
C          7.35526        1.59986        0.14473
C          8.72800        1.24614        0.10566
C          8.80305       -0.13833        0.12189
O          7.51919       -0.62663        0.13307
C          9.96534       -0.99133        0.15218
C         10.04157       -2.35745        0.23486
C          9.13741       -3.47782        0.35418
O          7.91998       -3.46298        0.33601
N          9.96638       -4.57711        0.52684
C          9.49810       -5.89257        0.87258
C         11.31408       -4.28306        0.45048
O         12.25737       -5.05056        0.51971
C         11.36304       -2.85704        0.29291
C         12.33306       -1.89891        0.28071
S         11.58158       -0.34584        0.16020
C         13.75886       -2.03921        0.38760
C         14.59011       -3.03846       -0.07593
C         15.92035       -2.67144        0.26287
C         15.86496       -1.44254        0.90326
O         14.53370       -1.12126        1.02810
C         16.92604       -0.60835        1.38841
C         16.85417        0.73293        1.38249
S         15.46352        1.60239        0.69890
C         17.84136        1.69326        1.92131
C         19.05124        1.38754        2.39812
N         17.33335        2.98563        1.87243
C         16.07589        3.12751        1.33366
C         15.29924        4.23365        1.25514
C         13.97252        4.19848        0.70706
N         12.89941        4.17462        0.27954
C         15.77441        5.47108        1.73082
N         16.19477        6.48048        2.12821
H         -0.39790       -3.66545        0.20774
H         -1.70724       -4.69219        2.00151
H         -1.36671       -3.98810        4.35758
H          0.38962       -2.31983        4.89606
H          1.59649       -1.15023        3.09970
H         -1.59202       -1.27189        0.27367
H         -3.01263       -1.27460       -1.71566
H         -1.99902       -1.17238       -3.97842
H          0.46987       -1.10176       -4.21663
H          1.92516       -1.22227       -2.24187
H          0.77300        1.26709       -0.26677
H          1.33126        3.29036       -1.51444
H          3.67251        3.70438       -2.23000
H          5.43886        2.19630       -1.53133
H          5.62831       -1.65633        1.44850
H          3.34182       -2.44682        1.55599
H          6.95170        2.60189        0.18247
H          9.56574        1.93083        0.09715
H          9.85951       -6.61075        0.13208
H          9.92721       -6.16038        1.84436
H          8.40860       -5.92216        0.93685
H         14.28338       -3.92269       -0.62050
H         16.82010       -3.21513        0.01635
H         17.80864       -1.12059        1.76137
H         19.43521        0.37374        2.42280
H         19.72043        2.15621        2.77840
H         17.84819        3.75283        2.28240
