83

N          1.29744       -3.57404        0.59801
C          0.83611       -4.75266        1.32513
C         -0.21864       -5.55560        0.84276
C         -0.70760       -6.64576        1.57085
C         -0.10474       -7.00691        2.76957
C          0.97799       -6.27155        3.24282
C          1.42639       -5.14341        2.54259
C          0.37174       -2.84247       -0.26082
C         -0.99603       -2.73608        0.06048
C         -1.91913       -2.19223       -0.83977
C         -1.48565       -1.67135       -2.05401
C         -0.12845       -1.67207       -2.35604
C          0.78648       -2.26281       -1.47679
C          2.71454       -3.24223        0.57674
C          3.15561       -1.90425        0.48046
C          4.51740       -1.57710        0.30956
C          5.46742       -2.61503        0.29013
C          5.05093       -3.93805        0.46178
C          3.69596       -4.24726        0.59237
C          6.82368       -2.31331        0.11133
C          7.27685       -0.99128       -0.01533
C          6.32770        0.03602       -0.00869
C          4.96407       -0.25294        0.14854
C          8.70798       -0.71426       -0.09084
C          9.49261        0.41557       -0.17023
C         10.84215       -0.02863       -0.12675
C         10.82147       -1.41050       -0.03759
O          9.51512       -1.81037       -0.02178
C         11.89905       -2.35610        0.02708
C         13.16863       -2.27734       -0.47114
C         13.94457       -1.35158       -1.25466
O         13.61850       -0.23223       -1.61006
N         15.12190       -2.02670       -1.52404
C         16.12392       -1.55377       -2.43981
C         15.20648       -3.26972       -0.92367
O         16.13646       -4.05725       -0.95224
C         13.93743       -3.44370       -0.27269
C         13.28176       -4.45031        0.37562
S         11.67796       -3.91796        0.75457
C         13.73009       -5.77626        0.69079
C         14.99362       -6.23512        1.00529
C         14.88633       -7.62979        1.24862
C         13.55249       -7.98019        1.10629
O         12.88547       -6.84480        0.70761
C         12.91092       -9.24301        1.29975
C         11.64366       -9.35928        1.74417
S         10.66740       -7.95413        2.21684
C         10.85566      -10.59926        1.89499
C         11.32192      -11.85005        1.74539
N          9.54342      -10.30500        2.21693
C          9.22925       -8.96560        2.34515
C          8.02278       -8.38721        2.53150
C          7.84548       -6.97257        2.57676
N          7.68529       -5.82174        2.59621
C          6.86391       -9.19004        2.66676
N          5.92213       -9.85807        2.78005
H         -0.68234       -5.34240       -0.11723
H         -1.55512       -7.21201        1.19318
H         -0.47354       -7.86221        3.32977
H          1.47215       -6.56878        4.16434
H          2.24884       -4.57150        2.96545
H         -1.36777       -3.11476        1.00989
H         -2.97765       -2.19066       -0.59346
H         -2.20258       -1.26590       -2.76287
H          0.22242       -1.23866       -3.28908
H          1.82924       -2.28897       -1.78208
H          2.42279       -1.10052        0.51494
H          5.78142       -4.74418        0.48663
H          3.42177       -5.29504        0.68035
H          7.54425       -3.13072        0.09206
H          6.63337        1.07447       -0.10789
H          4.25108        0.56890        0.15349
H          9.14676        1.43780       -0.22498
H         11.72331        0.59768       -0.14420
H         17.08633       -1.50194       -1.92529
H         16.20779       -2.28059       -3.25488
H         15.85433       -0.57842       -2.85049
H         15.88934       -5.63402        1.07064
H         15.68719       -8.29500        1.53906
H         13.49756      -10.12302        1.06053
H         12.35308      -12.06395        1.49331
H         10.66995      -12.70899        1.87049
H          8.84622      -11.03842        2.25704
