83

N          1.10559       -1.48025        0.17843
C          0.59419       -2.32528        1.25572
C         -0.24081       -3.43316        0.97781
C         -0.97676       -4.06908        1.98088
C         -0.81794       -3.67595        3.30265
C          0.11352       -2.68848        3.61964
C          0.81057       -2.01357        2.60670
C          0.30201       -1.38134       -1.04007
C         -1.11173       -1.37150       -0.97612
C         -1.90337       -1.37154       -2.12800
C         -1.30081       -1.31985       -3.37823
C          0.08874       -1.27668       -3.47193
C          0.88328       -1.32231       -2.31745
C          2.43357       -0.84691        0.26132
C          2.74442        0.42338       -0.34035
C          1.75121        1.34999       -0.74790
C          2.04977        2.51829       -1.45069
C          3.35880        2.78801       -1.79747
C          4.36978        1.94561       -1.34298
C          4.11063        0.81190       -0.52942
C          5.14815        0.05641        0.08702
C          4.80005       -1.08631        0.82264
C          3.48341       -1.55037        0.87679
C          6.57477        0.43193        0.04543
C          7.29408        1.60927        0.02666
C          8.66884        1.25262       -0.03055
C          8.73651       -0.12831        0.00660
O          7.45251       -0.61534        0.05089
C          9.87879       -0.99932        0.01365
C         11.12420       -0.85611       -0.53354
C         11.82631        0.09820       -1.35305
O         11.42399        1.18199       -1.72626
N         13.04424       -0.51165       -1.64319
C         14.00324        0.00226       -2.57933
C         13.20232       -1.74389       -1.03645
O         14.16852       -2.48860       -1.09324
C         11.96541       -1.97547       -0.34542
C         11.38637       -3.00496        0.33618
S          9.77635       -2.56116        0.77329
C         11.91895       -4.29736        0.65266
C         13.21292       -4.64988        0.98449
C         13.21137       -6.04018        1.24963
C         11.91729       -6.49865        1.05710
O         11.14816       -5.42755        0.67102
C         11.34920       -7.77253        1.35027
C         10.88062       -8.02200        2.58486
S         10.98948       -6.79156        3.84767
C         10.09816       -9.18095        3.04829
C          9.95983      -10.34266        2.40168
N          9.49636       -8.89321        4.26359
C          9.71467       -7.61619        4.73579
C          9.12429       -6.96126        5.74279
C          9.42157       -5.60909        6.09385
N          9.65601       -4.51585        6.40824
C          8.28268       -7.69633        6.77321
N          7.58450       -8.30613        7.62802
H         -0.37846       -3.77639       -0.04621
H         -1.69053       -4.84657        1.71970
H         -1.41690       -4.13817        4.08329
H          0.27001       -2.41267        4.65918
H          1.48286       -1.20907        2.88947
H         -1.61926       -1.38928       -0.01366
H         -2.98620       -1.41575       -2.04175
H         -1.91219       -1.31188       -4.27676
H          0.56104       -1.21902       -4.44915
H          1.96327       -1.31838       -2.43489
H          0.70645        1.16833       -0.50276
H          1.25399        3.19687       -1.74437
H          3.60427        3.66072       -2.39652
H          5.38270        2.19223       -1.64903
H          5.57117       -1.65205        1.34481
H          3.29930       -2.49115        1.38981
H          6.88905        2.61127        0.05006
H          9.50805        1.93574       -0.06683
H         14.96766        0.12509       -2.07963
H         14.12609       -0.73392       -3.38014
H         13.67148        0.95138       -3.00732
H         14.05474       -3.97657        1.06893
H         14.04173       -6.63059        1.61178
H         11.21301       -8.46466        0.52895
H         10.45138      -10.53968        1.45030
H          9.35590      -11.14602        2.81151
H          8.75920       -9.48964        4.62175
