83

N          1.35780       -3.61322        0.50071
C          0.90010       -4.78909        1.23542
C         -0.13758       -5.61201        0.74947
C         -0.62708       -6.69528        1.48829
C         -0.03974       -7.03057        2.70218
C          1.02962       -6.27780        3.17820
C          1.47717       -5.15628        2.46648
C          0.43941       -2.90698       -0.38707
C         -0.93570       -2.81521       -0.09491
C         -1.84836       -2.30153       -1.02336
C         -1.39852       -1.79612       -2.23822
C         -0.03549       -1.77836       -2.51142
C          0.87022       -2.33862       -1.60307
C          2.77117       -3.26534        0.49429
C          3.19889       -1.92196        0.39182
C          4.55794       -1.57831        0.22062
C          5.51468       -2.60618        0.19557
C          5.11076       -3.93360        0.37799
C          3.76175       -4.25969        0.52171
C          6.86479       -2.28621       -0.00585
C          7.31761       -0.96496       -0.11911
C          6.36058        0.05232       -0.10323
C          4.99752       -0.25014        0.05569
C          8.75167       -0.68717       -0.19565
C          9.53686        0.44230       -0.27751
C         10.88897       -0.00057       -0.23854
C         10.87239       -1.38236       -0.14029
O          9.56399       -1.78137       -0.12382
C         11.95401       -2.32738       -0.06738
C         13.21984       -2.26639       -0.57803
C         13.99168       -1.35851       -1.38649
O         13.65786       -0.25442       -1.78301
N         15.17761       -2.03503       -1.62305
C         16.19870       -1.55645       -2.51946
C         15.25162       -3.27540       -1.01929
O         16.17350       -4.07046       -1.04583
C         13.98717       -3.43376       -0.35954
C         13.33173       -4.42750        0.30445
S         11.74831       -3.86545        0.70818
C         13.76245       -5.75761        0.62965
C         15.00717       -6.23680        0.98321
C         14.86001       -7.62419        1.26505
C         13.52684       -7.95345        1.07756
O         12.90476       -6.81408        0.61386
C         12.82029       -9.18558        1.26617
C         11.54717       -9.20044        1.70727
S         10.72261       -7.72740        2.23159
C         10.57431      -10.31599        1.67195
C         10.88618      -11.61708        1.60305
N          9.27657       -9.82031        1.69471
C          9.19656       -8.43939        1.71746
C          8.17750       -7.61950        1.39722
C          8.39999       -6.12094        1.27385
N          8.58456       -4.87776        1.17151
C          6.86342       -8.11269        1.20045
N          5.78255       -8.52304        1.10045
H         -0.58693       -5.42101       -0.22193
H         -1.46271       -7.27678        1.10716
H         -0.40916       -7.87978        3.27122
H          1.51414       -6.55629        4.11052
H          2.28817       -4.57020        2.89140
H         -1.32066       -3.18234        0.85369
H         -2.91159       -2.31183       -0.79863
H         -2.10701       -1.41662       -2.96961
H          0.32786       -1.35484       -3.44425
H          1.91945       -2.35070       -1.88632
H          2.45643       -1.12691        0.41545
H          5.84665       -4.73193        0.39655
H          3.49992       -5.31035        0.61994
H          7.59111       -3.09108       -0.06408
H          6.65837        1.09245       -0.20439
H          4.27747        0.56518        0.05661
H          9.18903        1.46359       -0.33403
H         11.76978        0.62600       -0.26332
H         17.15091       -1.50987       -1.98541
H         16.29547       -2.27838       -3.33676
H         15.94027       -0.57637       -2.92709
H         15.91131       -5.64959        1.06321
H         15.63285       -8.29492        1.61117
H         13.31793      -10.09525        0.95271
H         11.91113      -11.97022        1.59438
H         10.11252      -12.37950        1.57088
H          8.51167      -10.40510        1.39208
