83

N          1.10707       -1.45820        0.27534
C          0.59736       -2.28429        1.37223
C         -0.27675       -3.36898        1.12274
C         -1.03327       -3.95327        2.14271
C         -0.84836       -3.54379        3.45585
C          0.13541       -2.60075        3.74785
C          0.84801       -1.96977        2.71672
C          0.28044       -1.35444       -0.93114
C         -1.13295       -1.33727       -0.84430
C         -1.94735       -1.33803       -1.98140
C         -1.36943       -1.29736       -3.24282
C          0.01851       -1.26039       -3.36132
C          0.83550       -1.30086       -2.22053
C          2.44720       -0.84191        0.33257
C          2.77349        0.41252       -0.29486
C          1.79516        1.35845       -0.69511
C          2.10859        2.51220       -1.41740
C          3.41622        2.74454       -1.79611
C          4.41528        1.88400       -1.34943
C          4.14543        0.76904       -0.51400
C          5.17991        0.00567        0.10006
C          4.81984       -1.10985        0.86985
C          3.49425       -1.54665        0.95322
C          6.61090        0.36322        0.04220
C          7.32979        1.54145        0.02365
C          8.70165        1.18711       -0.01346
C          8.77681       -0.19663        0.02030
O          7.49263       -0.68527        0.04289
C          9.94007       -1.04788        0.05748
C         10.01668       -2.41265        0.15885
C          9.11368       -3.53142        0.29775
O          7.89551       -3.51951        0.26664
N          9.94283       -4.62505        0.49712
C          9.47694       -5.93239        0.87404
C         11.28928       -4.33277        0.40734
O         12.23373       -5.10007        0.48405
C         11.33805       -2.90949        0.22330
C         12.30956       -1.95268        0.18557
S         11.55677       -0.40254        0.04745
C         13.73440       -2.10053        0.27377
C         14.55133       -3.10964       -0.19545
C         15.88894       -2.74923        0.11590
C         15.85417       -1.51882        0.75281
O         14.52678       -1.18312        0.89389
C         16.92649       -0.69002        1.21065
C         16.85772        0.65569        1.19071
S         15.45742        1.50891        0.52319
C         17.85445        1.62682        1.69370
C         19.07349        1.32132        2.16148
N         17.35709        2.91545        1.61788
C         16.08242        3.04459        1.10037
C         15.30738        4.15066        0.99233
C         13.98051        4.10701        0.47943
N         12.89226        4.07781        0.07518
C         15.82023        5.39901        1.42142
N         16.25996        6.40956        1.77787
H         -0.43433       -3.72757        0.10698
H         -1.78452       -4.70123        1.90058
H         -1.46529       -3.96019        4.24827
H          0.32036       -2.32166        4.78189
H          1.56029       -1.19479        2.98294
H         -1.62557       -1.35033        0.12582
H         -3.02869       -1.37502       -1.87438
H         -1.99783       -1.29238       -4.12998
H          0.47218       -1.21171       -4.34787
H          1.91277       -1.29749       -2.36109
H          0.75229        1.20672       -0.42350
H          1.32521        3.20978       -1.69966
H          3.67128        3.60357       -2.41105
H          5.42853        2.10297       -1.67626
H          5.58908       -1.67611        1.39448
H          3.30339       -2.46887        1.49524
H          6.92654        2.54419        0.04667
H          9.54051        1.87099       -0.03391
H          9.82544       -6.66525        0.14191
H          9.92024       -6.18292        1.84426
H          8.38857       -5.95722        0.95566
H         14.22541       -3.99358       -0.72481
H         16.77970       -3.30516       -0.14108
H         17.81752       -1.19605        1.56412
H         19.45033        0.30463        2.20856
H         19.75252        2.09355        2.51329
H         17.88258        3.69489        1.99613
