83

N          1.05126       -1.41607        0.17077
C          0.53738       -2.25740        1.24991
C         -0.28818       -3.37241        0.97272
C         -1.02749       -4.00612        1.97457
C         -0.88019       -3.60455        3.29518
C          0.04409       -2.61063        3.61282
C          0.74343       -1.93726        2.60056
C          0.25685       -1.32883       -1.05506
C         -1.15748       -1.33010       -1.00158
C         -1.94159       -1.34040       -2.15875
C         -1.32952       -1.28740       -3.40386
C          0.06011       -1.23391       -3.48841
C          0.84729       -1.26864       -2.32818
C          2.37351       -0.77367        0.26113
C          2.67883        0.49661       -0.34222
C          1.68196        1.41629       -0.75711
C          1.97684        2.58586       -1.45975
C          3.28643        2.86345       -1.79919
C          4.30012        2.02766       -1.33729
C          4.04358        0.89208       -0.52545
C          5.08252        0.14146        0.09666
C          4.73711       -0.99820        0.83826
C          3.42315       -1.46808        0.88783
C          6.50540        0.52408        0.06445
C          7.20996        1.70922        0.07118
C          8.58719        1.36931        0.04029
C          8.68106       -0.01210        0.04088
O          7.39742       -0.51300        0.05211
C          9.84141       -0.87025        0.02840
C         11.18367       -0.59002       -0.03307
C         12.04136        0.56681       -0.15081
O         11.70483        1.73818       -0.17593
N         13.32532        0.05175       -0.26994
C         14.48367        0.84899       -0.56527
C         13.38110       -1.32330       -0.20102
O         14.36736       -2.03869       -0.26148
C         12.01010       -1.73914       -0.06417
C         11.33015       -2.92309       -0.05933
S          9.63846       -2.60026        0.05005
C         11.83448       -4.26176       -0.16193
C         13.00896       -4.79375        0.33478
C         13.02582       -6.16567       -0.01246
C         11.86201       -6.43039       -0.71466
O         11.15934       -5.25440       -0.81942
C         11.32072       -7.67904       -1.12236
C         10.56804       -8.39520       -0.26836
S         10.28968       -7.80880        1.37185
C          9.76860       -9.60032       -0.53303
C          9.85180      -10.37831       -1.62349
N          8.87365       -9.82058        0.50043
C          8.89378       -8.86854        1.49892
C          8.04774       -8.66820        2.51607
C          8.17254       -7.60097        3.45763
N          8.26178       -6.75025        4.24259
C          7.03071       -9.72600        2.91244
N          6.18700      -10.60354        3.24125
H         -0.41535       -3.72299       -0.04988
H         -1.73463       -4.78956        1.71315
H         -1.48145       -4.06611        4.07435
H          0.19343       -2.32967        4.65215
H          1.41019       -1.12824        2.88391
H         -1.67112       -1.34808       -0.04259
H         -3.02455       -1.39297       -2.07954
H         -1.93394       -1.28673       -4.30803
H          0.53851       -1.17543       -4.46267
H          1.92796       -1.25382       -2.43862
H          0.63725        1.22814       -0.51726
H          1.17862        3.25956       -1.75778
H          3.52931        3.73748       -2.39740
H          5.31375        2.28131       -1.63608
H          5.50887       -1.55473        1.36888
H          3.24141       -2.40583        1.40625
H          6.79598        2.70732        0.10167
H          9.40537        2.07396        0.03172
H         15.23725        0.69778        0.21237
H         14.89979        0.50202       -1.51682
H         14.22811        1.90831       -0.64574
H         13.75257       -4.26624        0.91617
H         13.76402       -6.89874        0.28400
H         11.43280       -7.96870       -2.16428
H         10.56670      -10.19032       -2.41468
H          9.21453      -11.24954       -1.74380
H          8.11998      -10.47985        0.39317
