83

N          1.18672       -1.40556        0.21976
C          0.67419       -2.23906        1.30876
C         -0.19466       -3.32546        1.04862
C         -0.94765       -3.92388        2.06284
C         -0.76712       -3.52356        3.37952
C          0.20744       -2.57357        3.68049
C          0.91849       -1.93087        2.65578
C          0.36431       -1.29284       -0.98754
C         -1.04889       -1.27282       -0.90320
C         -1.86030       -1.26563       -2.04200
C         -1.27893       -1.21905       -3.30179
C          0.10935       -1.18396       -3.41710
C          0.92330       -1.23319       -2.27491
C          2.52779       -0.79411        0.28367
C          2.85684        0.46659       -0.32976
C          1.88060        1.41729       -0.72425
C          2.19735        2.57872       -1.43273
C          3.50664        2.81507       -1.80269
C          4.50305        1.94838       -1.36222
C          4.22935        0.82343       -0.54121
C          5.26069        0.04974        0.06521
C          4.89824       -1.07626        0.81856
C          3.57202       -1.51042        0.89559
C          6.69150        0.40613        0.01573
C          7.41107        1.58394        0.01007
C          8.78207        1.22871       -0.02339
C          8.85529       -0.15544       -0.00109
O          7.57156       -0.64349        0.01113
C         10.01802       -1.00622        0.03288
C         10.09955       -2.37155        0.11941
C          9.20121       -3.49596        0.24204
O          7.98277       -3.48685        0.22000
N         10.03502       -4.59053        0.41822
C          9.57289       -5.90661        0.77034
C         11.38091       -4.29000        0.33960
O         12.32915       -5.05321        0.41005
C         11.42332       -2.86347        0.17855
C         12.38890       -1.90020        0.15669
S         11.63027       -0.35312        0.03439
C         13.81402       -2.03435        0.24512
C         14.64204       -3.02824       -0.23552
C         15.97508       -2.65353        0.07831
C         15.92623       -1.42986        0.72792
O         14.59478       -1.11144        0.87258
C         16.98829       -0.59361        1.19629
C         16.90728        0.75184        1.19748
S         15.51208        1.61253        0.52531
C         17.88254        1.71602        1.74834
C         19.10821        1.41919        2.20110
N         17.35732        2.99299        1.74375
C         16.08154        3.12434        1.22679
C         15.27822        4.20923        1.20428
C         13.94798        4.15455        0.67709
N         12.86116        4.11193        0.27076
C         15.72485        5.43588        1.73058
N         16.11306        6.44284        2.16535
H         -0.34927       -3.67563        0.02946
H         -1.69234       -4.67610        1.81383
H         -1.38080       -3.95218        4.16792
H          0.38673       -2.29912        4.71676
H          1.62443       -1.15214        2.92812
H         -1.54285       -1.28994        0.06619
H         -2.94184       -1.30118       -1.93760
H         -1.90520       -1.20811       -4.19030
H          0.56573       -1.13028       -4.40221
H          2.00106       -1.23254       -2.41213
H          0.83635        1.26273       -0.45983
H          1.41526        3.27911       -1.71158
H          3.76485        3.68084       -2.40677
H          5.51744        2.17008       -1.68350
H          5.66592       -1.65224        1.33490
H          3.37779       -2.43954        1.42453
H          7.00907        2.58694        0.03945
H          9.62159        1.91214       -0.03403
H          9.92602       -6.62540        0.02643
H         10.01369       -6.17314        1.73735
H          8.48424       -5.93736        0.84778
H         14.32671       -3.91010       -0.77483
H         16.87244       -3.19560       -0.18313
H         17.87097       -1.09724        1.57132
H         19.51050        0.41254        2.19255
H         19.76193        2.19280        2.59220
H         17.85119        3.75987        2.18039
