83

N          1.20561       -1.49429        0.31336
C          0.70784       -2.34366        1.39543
C         -0.13715       -3.44635        1.12573
C         -0.86787       -4.07697        2.13621
C         -0.69041       -3.68795        3.45676
C          0.25544       -2.71135        3.76447
C          0.94499       -2.03910        2.74446
C          0.38235       -1.38709       -0.89188
C         -1.03032       -1.38270       -0.80499
C         -1.84163       -1.37941       -1.94299
C         -1.26074       -1.31830       -3.20262
C          0.12693       -1.26685       -3.31934
C          0.94136       -1.31541       -2.17850
C          2.53474       -0.86125        0.38081
C          2.83973        0.41073       -0.22132
C          1.84496        1.34233       -0.61283
C          2.13908        2.51387       -1.31355
C          3.44432        2.78059       -1.67696
C          4.45787        1.93320       -1.23837
C          4.20448        0.79796       -0.42588
C          5.24806        0.04122        0.17751
C          4.90672       -1.10160        0.91732
C          3.59101       -1.56544        0.98463
C          6.67282        0.41681        0.12548
C          7.39128        1.59604        0.11182
C          8.76555        1.24351        0.05740
C          8.83561       -0.13768        0.08252
O          7.55367       -0.62859        0.11906
C          9.98335       -1.00025        0.09425
C         11.23470       -0.83894       -0.43717
C         11.93928        0.12851       -1.24252
O         11.52985        1.21708       -1.60736
N         13.15749       -0.46919       -1.52453
C         14.11762        0.05469       -2.46115
C         13.32715       -1.70421       -0.92454
O         14.30034       -2.43680       -0.97493
C         12.08246       -1.95304       -0.24877
C         11.50148       -2.99550        0.41471
S          9.88424       -2.56391        0.83895
C         12.02836       -4.29116        0.72551
C         13.32421       -4.65966        1.03023
C         13.31043       -6.04997        1.29669
C         12.00365       -6.48852        1.14862
O         11.24279       -5.41038        0.77104
C         11.42760       -7.75788        1.43363
C         10.98288       -8.04051        2.67194
S         11.13982       -6.87126        3.99707
C         10.22018       -9.22415        3.10839
C         10.04211      -10.34578        2.39714
N          9.69783       -9.01945        4.36296
C          9.96898       -7.79361        4.95175
C          9.46467       -7.25321        6.08005
C          9.78390       -5.92955        6.50735
N         10.03464       -4.84760        6.84510
C          8.54367       -7.98774        6.86667
N          7.79869       -8.61944        7.49759
H         -0.28946       -3.78700        0.10302
H         -1.59285       -4.84643        1.88188
H         -1.28535       -4.14517        4.24337
H          0.42857       -2.44114        4.80293
H          1.62787       -1.24168        3.02182
H         -1.52212       -1.40858        0.16542
H         -2.92251       -1.42876       -1.83810
H         -1.88746       -1.30865       -4.09065
H          0.58189       -1.20051       -4.30423
H          2.01912       -1.30342       -2.31499
H          0.80324        1.16385       -0.35367
H          1.34248        3.19784       -1.59162
H          3.68537        3.65534       -2.27507
H          5.46825        2.17822       -1.55492
H          5.68327       -1.66605        1.43251
H          3.41313       -2.50553        1.50010
H          6.98615        2.59778        0.14508
H          9.60543        1.92500        0.03472
H         15.08549        0.16612       -1.96513
H         14.23348       -0.67268       -3.27239
H         13.78741        1.00947       -2.87573
H         14.17734       -3.99812        1.09202
H         14.14511       -6.65403        1.62401
H         11.27795       -8.43230        0.59946
H         10.47050      -10.48792        1.41132
H          9.45963      -11.17493        2.78818
H          9.01869       -9.66827        4.75262
