83

N          1.06786       -1.48042        0.22103
C          0.56524       -2.32636        1.30218
C         -0.26814       -3.43696        1.02964
C         -0.99784       -4.07298        2.03717
C         -0.83345       -3.67783        3.35768
C          0.09729       -2.68774        3.66868
C          0.78741       -2.01229        2.65151
C          0.25531       -1.38299       -0.99140
C         -1.15778       -1.37786       -0.91547
C         -1.95929       -1.38034       -2.06023
C         -1.36776       -1.32699       -3.31544
C          0.02097       -1.27790       -3.42112
C          0.82566       -1.32012       -2.27358
C          2.39325       -0.84193        0.29611
C          2.69523        0.42877       -0.30912
C          1.69718        1.35268       -0.71102
C          1.98773        2.52138       -1.41723
C          3.29389        2.79370       -1.77397
C          4.30989        1.95496       -1.32371
C          4.05855        0.82129       -0.50732
C          5.10205        0.07064        0.10557
C          4.76239       -1.07079        0.84755
C          3.44858       -1.53998        0.90880
C          6.52355        0.45667        0.06616
C          7.22685        1.64294        0.06821
C          8.60468        1.30497        0.03544
C          8.69883       -0.07589        0.03807
O          7.41658       -0.57831        0.05322
C          9.85694       -0.93460        0.02713
C         11.20056       -0.65855       -0.01248
C         12.06632        0.49478       -0.09868
O         11.73840        1.66880       -0.09515
N         13.34491       -0.02488       -0.21361
C         14.51477        0.76721       -0.49220
C         13.39558       -1.40354       -0.14405
O         14.38000       -2.12189       -0.17916
C         12.02029       -1.81123       -0.04180
C         11.33559       -2.99130       -0.05911
S          9.64532       -2.66302        0.02180
C         11.83269       -4.33123       -0.15886
C         12.98411       -4.87715        0.37493
C         12.99922       -6.24666        0.02090
C         11.85320       -6.49624       -0.71749
O         11.17035       -5.31250       -0.84473
C         11.32347       -7.73379       -1.17612
C         10.52618       -8.46430       -0.37637
S         10.13291       -7.93169        1.27173
C          9.78590       -9.69156       -0.72026
C          9.94898      -10.41580       -1.83506
N          8.88444       -9.99937        0.27865
C          8.84387       -9.13291        1.35546
C          7.97024       -9.10129        2.38392
C          8.00302       -8.10408        3.39480
N          8.02230       -7.28056        4.21705
C          6.95890      -10.07742        2.46938
N          6.14723      -10.89928        2.51469
H         -0.41002       -3.78171        0.00683
H         -1.71105       -4.85258        1.78063
H         -1.42672       -4.14115        4.14192
H          0.25897       -2.41109        4.70728
H          1.45925       -1.20595        2.93014
H         -1.65658       -1.39748        0.05135
H         -3.04100       -1.42806       -1.96397
H         -1.98699       -1.32168       -4.20858
H          0.48429       -1.21826       -4.40261
H          1.90459       -1.31029       -2.40034
H          0.65492        1.16887       -0.45768
H          1.18824        3.19790       -1.70487
H          3.53259        3.66617       -2.37629
H          5.32099        2.20421       -1.63477
H          5.53873       -1.62944        1.36970
H          3.27121       -2.47924        1.42585
H          6.81157        2.64060        0.09860
H          9.42314        2.00930        0.02451
H         15.25982        0.60087        0.29027
H         14.93784        0.42857       -1.44420
H         14.26684        1.82853       -0.56315
H         13.71198       -4.35933        0.98412
H         13.72467       -6.98737        0.32706
H         11.52232       -8.01063       -2.20387
H         10.67069      -10.15668       -2.60151
H          9.36086      -11.31117       -2.01434
H          8.20285      -10.73873        0.14367
