83

N          1.18614       -1.44396        0.30730
C          0.66174       -2.27730        1.38858
C         -0.17951       -3.38171        1.11398
C         -0.93449       -3.99767        2.11559
C         -0.78729       -3.59074        3.43448
C          0.15231       -2.61085        3.75083
C          0.86728       -1.95410        2.73832
C          0.39137       -1.35142       -0.91775
C         -1.02261       -1.33670       -0.86238
C         -1.80781       -1.34271       -2.01830
C         -1.19817       -1.30114       -3.26519
C          0.19218       -1.26219       -3.35150
C          0.98024       -1.30202       -2.19210
C          2.51169       -0.80680        0.39745
C          2.82623        0.45732       -0.21568
C          1.83698        1.38029       -0.63990
C          2.14144        2.54153       -1.35270
C          3.45286        2.80627       -1.69455
C          4.45975        1.96798       -1.22409
C          4.19366        0.84412       -0.39968
C          5.22663        0.09716        0.23373
C          4.87261       -1.03489        0.98437
C          3.55625       -1.49996        1.03318
C          6.65278        0.46894        0.19393
C          7.37544        1.64552        0.16791
C          8.74852        1.28726        0.11720
C          8.81316       -0.09384        0.15992
O          7.52994       -0.57944        0.20725
C          9.95725       -0.96094        0.17162
C         11.19623       -0.81871       -0.39307
C         11.88465        0.12323       -1.24120
O         11.46856        1.20148       -1.62837
N         13.09509       -0.48567       -1.53310
C         14.03947        0.01191       -2.49918
C         13.27318       -1.70589       -0.90647
O         14.24212       -2.44388       -0.95976
C         12.04344       -1.93083       -0.19655
C         11.47214       -2.95591        0.50076
S          9.86922       -2.50596        0.95697
C         12.00208       -4.24937        0.81235
C         13.30292       -4.61412        1.10019
C         13.29789       -6.00548        1.35634
C         11.98930       -6.44580        1.23021
O         11.21909       -5.36964        0.86727
C         11.42337       -7.71261        1.54684
C         11.02974       -7.97476        2.80623
S         11.24542       -6.77752        4.09932
C         10.31927       -9.16329        3.30858
C         10.09108      -10.28703        2.61480
N          9.90953       -8.96152        4.61204
C         10.23085       -7.74127        5.17431
C          9.86546       -7.23364        6.36947
C         10.23023       -5.91616        6.78507
N         10.51932       -4.83966        7.10754
C          9.07347       -8.00622        7.25285
N          8.43037       -8.64606        7.97173
H         -0.30917       -3.73538        0.09253
H         -1.65445       -4.76974        1.85497
H         -1.40110       -4.03646        4.21315
H          0.30077       -2.32585        4.78913
H          1.54425       -1.15335        3.02041
H         -1.53565       -1.34583        0.09726
H         -2.89103       -1.38400       -1.93718
H         -1.80481       -1.29756       -4.16708
H          0.66961       -1.21261       -4.32671
H          2.06099       -1.30050       -2.30368
H          0.79082        1.20249       -0.39896
H          1.34835        3.21827       -1.65720
H          3.70315        3.67265       -2.30086
H          5.47514        2.21072       -1.52572
H          5.64035       -1.59151        1.52083
H          3.36935       -2.43329        1.55771
H          6.97368        2.64906        0.18312
H          9.59134        1.96474        0.07996
H         15.01531        0.13503       -2.02176
H         14.14174       -0.73655       -3.29284
H         13.70318        0.95615       -2.93230
H         14.15444       -3.94989        1.15455
H         14.13799       -6.60815        1.67258
H         11.25688       -8.40344        0.73013
H         10.42897      -10.42403        1.59308
H          9.55736      -11.12429        3.05493
H          9.31424       -9.63619        5.07569
