92

N          0.90196       -0.14658        0.07318
C         -0.00348        0.57252       -0.81065
C         -1.21686        1.11252       -0.32330
C         -2.23007        1.54062       -1.18434
C         -2.01731        1.52254       -2.55585
C         -0.77601        1.12960       -3.05467
C          0.22351        0.65699       -2.19161
C          0.33055       -0.82851        1.23950
C         -0.93134       -1.46055        1.17030
C         -1.52181       -2.04889        2.29376
C         -0.84074       -2.06976        3.50500
C          0.42600       -1.49882        3.59171
C          0.99871       -0.87174        2.47712
C          2.35826       -0.14152       -0.12185
C          3.15915       -1.26221        0.25123
C          2.67979       -2.59363        0.27684
C          3.41397       -3.63096        0.84817
C          4.58931       -3.33366        1.51214
C          5.12052       -2.05173        1.40358
C          4.51350       -1.06021        0.59671
C          5.19848        0.08793        0.10049
C          4.43058        1.10328       -0.49415
C          3.02726        1.02389       -0.53280
C          6.69878        0.12067        0.05504
S          7.56851        1.60451        0.28889
C          7.57617       -0.92756       -0.20785
C          7.32415       -2.33267       -0.63656
C          8.92327       -0.55759        0.07085
C          9.11566        0.78089        0.18514
C         10.51867        1.13155        0.15086
C         10.93756        2.56015        0.08394
C         11.32212       -0.01175        0.16924
S         10.38969       -1.45023        0.25729
C         12.76947       -0.15567        0.22799
C         13.59006       -1.19999       -0.15857
C         13.47628       -2.50312       -0.80185
O         12.50029       -2.97969       -1.35325
N         14.72686       -3.07635       -0.66072
C         15.03416       -4.43325       -1.03330
C         15.67229       -2.23092       -0.10647
O         16.85479       -2.44707        0.07812
C         14.93810       -1.04650        0.24590
C         15.19362        0.11014        0.91967
S         13.74467        1.02772        1.04205
C         16.40615        0.58604        1.51186
C         17.70499        0.47274        1.05930
C         18.52098        1.20418        1.95701
C         17.69954        1.71100        2.95274
O         16.41740        1.30161        2.67866
C         17.99176        2.61184        4.01825
C         17.92412        3.94018        3.81798
S         17.51780        4.60243        2.23325
C         17.94607        5.01440        4.82972
C         18.42609        4.90030        6.07447
N         17.37521        6.16886        4.31678
C         16.88137        6.04650        3.03392
C         15.99902        6.81950        2.37193
C         15.46421        6.34583        1.03028
N         15.02053        5.95289       -0.08273
C         15.55053        8.05931        2.89420
N         15.23340        9.08586        3.33315
H         -1.41259        1.14835        0.74711
H         -3.18827        1.85710       -0.77935
H         -2.81565        1.81463       -3.23341
H         -0.59725        1.15305       -4.12645
H          1.15535        0.30353       -2.62256
H         -1.48399       -1.48721        0.23373
H         -2.51335       -2.48758        2.21754
H         -1.29434       -2.53174        4.37811
H          0.97104       -1.53068        4.53155
H          1.97732       -0.41483        2.59557
H          1.72114       -2.82686       -0.18330
H          3.04307       -4.65031        0.81160
H          5.12911       -4.10180        2.05788
H          6.06621       -1.84471        1.90290
H          4.90919        1.98429       -0.91620
H          2.46917        1.88741       -0.88551
H          8.06956       -2.64973       -1.37437
H          7.40439       -3.01638        0.21584
H          6.34816       -2.45229       -1.11139
H         11.43884        2.86494        1.00717
H         11.62173        2.71817       -0.75754
H         10.09247        3.23993       -0.06109
H         15.79420       -4.43056       -1.81923
H         15.44991       -4.94580       -0.15849
H         14.14185       -4.96492       -1.37350
H         18.02019       -0.02905        0.15486
H         19.58026        1.39487        1.85762
H         18.12966        2.18846        5.00482
H         18.87047        3.98305        6.44383
H         18.40344        5.73896        6.76346
H         17.07077        6.90102        4.94696
