83

N          1.19966       -1.35846        0.13156
C          0.67479       -2.20865        1.19995
C         -0.15328       -3.31813        0.90760
C         -0.91258       -3.94929        1.89656
C         -0.78145       -3.55328        3.22047
C          0.14928       -2.57106        3.55482
C          0.86802       -1.89908        2.55493
C          0.41470       -1.26026       -1.10069
C         -1.00010       -1.26779       -1.06010
C         -1.77460       -1.27253       -2.22393
C         -1.15435       -1.21145       -3.46462
C          0.23596       -1.15062       -3.53646
C          1.01381       -1.18695       -2.36931
C          2.52108       -0.71530        0.23955
C          2.83294        0.55885       -0.35279
C          1.84110        1.48603       -0.76265
C          2.14404        2.66189       -1.45232
C          3.45527        2.93615       -1.78739
C          4.46366        2.09199       -1.33054
C          4.19930        0.95233       -0.52697
C          5.23354        0.19795        0.09736
C          4.88083       -0.94261        0.83464
C          3.56554       -1.41125        0.87329
C          6.65694        0.57916        0.07249
C          7.36364        1.76351        0.07844
C          8.74019        1.42227        0.04858
C          8.83096        0.04134        0.05609
O          7.54751       -0.45844        0.06703
C          9.98883       -0.81743        0.05085
C         11.33123       -0.54019       -0.01325
C         12.19292        0.61262       -0.13847
O         11.86498        1.78662       -0.13912
N         13.46807        0.09250       -0.28244
C         14.62562        0.87912       -0.62094
C         13.52380       -1.28379       -0.18199
O         14.50970       -1.99972       -0.22342
C         12.15197       -1.69208       -0.04012
C         11.46840       -2.87313       -0.02591
S          9.77954       -2.54535        0.08495
C         11.96600       -4.21354       -0.11966
C         13.14276       -4.74298        0.37396
C         13.15323       -6.11827        0.04261
C         11.97340       -6.39048       -0.63170
O         11.27945       -5.21258       -0.75498
C         11.42438       -7.64395       -1.02506
C         10.67362       -8.34962       -0.15594
S         10.37618       -7.75864        1.48918
C          9.94490       -9.60616       -0.40200
C         10.03802      -10.35895       -1.50580
N          9.14056       -9.91318        0.67952
C          9.17910       -9.02348        1.74551
C          8.43421       -9.02487        2.87163
C          8.55316       -8.00676        3.86260
N          8.64386       -7.17496        4.66441
C          7.49146      -10.05191        3.09960
N          6.72935      -10.91305        3.27224
H         -0.26900       -3.66451       -0.11794
H         -1.62341       -4.72509        1.62238
H         -1.39976       -4.01015        3.98909
H          0.28791       -2.29675        4.59739
H          1.53876       -1.09834        2.85154
H         -1.52308       -1.29659       -0.10628
H         -2.85799       -1.32877       -2.15377
H         -1.75236       -1.20951       -4.37240
H          0.72164       -1.08683       -4.50683
H          2.09520       -1.16604       -2.47176
H          0.79535        1.30054       -0.52581
H          1.35021        3.34358       -1.74396
H          3.70460        3.81426       -2.37711
H          5.47890        2.34394       -1.62460
H          5.64821       -1.50103        1.36963
H          3.37923       -2.34941        1.38934
H          6.95197        2.76254        0.10551
H          9.56013        2.12466        0.03718
H         15.39542        0.73982        0.14242
H         15.02002        0.51208       -1.57488
H         14.37086        1.93672       -0.71844
H         13.89202       -4.20993        0.94326
H         13.89729       -6.84683        0.33186
H         11.58065       -7.95896       -2.04914
H         10.68425      -10.10108       -2.33865
H          9.46662      -11.27837       -1.61306
H          8.50318      -10.70288        0.64698
