83

N          1.15906       -1.36265        0.31812
C          0.64323       -2.20196        1.39735
C         -0.19690       -3.30613        1.12051
C         -0.94461       -3.92961        2.12243
C         -0.79142       -3.52949        3.44275
C          0.14790       -2.54942        3.75993
C          0.85672       -1.88610        2.74745
C          0.35528       -1.26488       -0.90041
C         -1.05776       -1.24483       -0.83275
C         -1.84970       -1.23776       -1.98532
C         -1.24999       -1.18650       -3.23442
C          0.13940       -1.14809       -3.33175
C          0.93530       -1.20003       -2.17598
C          2.48540       -0.73087        0.40057
C          2.79575        0.53897       -0.20280
C          1.80405        1.46606       -0.61232
C          2.09717        2.63221       -1.31243
C          3.40805        2.90553       -1.65441
C          4.41830        2.06660       -1.20182
C          4.16064        0.92705       -0.39166
C          5.19772        0.16818        0.22121
C          4.85125       -0.97473        0.95784
C          3.53494       -1.43622        1.01581
C          6.62021        0.54615        0.18336
C          7.32885        1.72919        0.18562
C          8.70253        1.38344        0.14567
C          8.79187        0.00193        0.14850
O          7.50770       -0.49412        0.16650
C          9.94670       -0.86251        0.13457
C         11.28905       -0.58693        0.06756
C         12.14805        0.56758       -0.05268
O         11.81616        1.74039       -0.06858
N         13.42615        0.05109       -0.17699
C         14.58665        0.84735       -0.48123
C         13.48203       -1.32739       -0.09870
O         14.46726       -2.04294       -0.15762
C         12.11038       -1.73946        0.03985
C         11.42816       -2.92241        0.05923
S          9.73764       -2.59078        0.17008
C         11.92439       -4.26724       -0.02351
C         13.09527       -4.79875        0.48278
C         13.09857       -6.17986        0.16993
C         11.93335       -6.45163       -0.53102
O         11.24213       -5.27021       -0.66033
C         11.38798       -7.70062       -0.94864
C         10.65031       -8.43419       -0.09291
S         10.38190       -7.88801        1.56534
C          9.81154       -9.61171       -0.38323
C          9.92184      -10.38962       -1.46969
N          8.86864       -9.79121        0.61383
C          8.88993       -8.83001        1.60725
C          7.95838       -8.51703        2.52910
C          8.14470       -7.27900        3.39106
N          8.29926       -6.25196        4.10613
C          6.79565       -9.30295        2.72043
N          5.86912       -9.98210        2.88550
H         -0.33086       -3.65349        0.09750
H         -1.66348       -4.70243        1.86119
H         -1.39992       -3.98133        4.22203
H          0.30124       -2.27033        4.79920
H          1.53511       -1.08655        3.03034
H         -1.56360       -1.26264        0.12955
H         -2.93357       -1.27976       -1.89543
H         -1.86150       -1.17426       -4.13285
H          0.61093       -1.08936       -4.30954
H          2.01554       -1.19449       -2.29737
H          0.75757        1.28392       -0.36580
H          1.30265        3.31282       -1.60749
H          3.64916        3.78443       -2.25162
H          5.43296        2.31356       -1.50539
H          5.62366       -1.53920        1.47911
H          3.34985       -2.37392        1.53237
H          6.91796        2.72825        0.21761
H          9.52428        2.08634        0.13083
H         15.34165        0.69700        0.29486
H         14.99992        0.49959       -1.43398
H         14.33064        1.90630       -0.56213
H         13.84509       -4.26500        1.05010
H         13.83274       -6.91158        0.47737
H         11.48024       -7.96446       -1.99330
H         10.67934      -10.22539       -2.23033
H          9.27196      -11.23547       -1.61486
H          8.06431      -10.38165        0.45036
