83

N          1.21687       -1.37952        0.06886
C          0.68375       -2.22452        1.13579
C         -0.14312       -3.33429        0.84100
C         -0.89809       -3.97116        1.82907
C         -0.76654       -3.57791        3.15382
C          0.15543       -2.58752        3.48931
C          0.87087       -1.91099        2.49053
C          0.43901       -1.28116       -1.16620
C         -0.97553       -1.27667       -1.13072
C         -1.74412       -1.28121       -2.29779
C         -1.11690       -1.22490       -3.53817
C          0.27410       -1.17635       -3.60180
C          1.04574       -1.21795       -2.43156
C          2.54143       -0.74507        0.18019
C          2.86166        0.52728       -0.41136
C          1.87550        1.45360       -0.83665
C          2.18711        2.62550       -1.52896
C          3.50214        2.89761       -1.84884
C          4.50476        2.05362       -1.37776
C          4.23056        0.91676       -0.57381
C          5.25734        0.15856        0.05719
C          4.89625       -0.98546        0.78598
C          3.57930       -1.44941        0.81506
C          6.68990        0.52624        0.03094
C          7.41603        1.70343        0.02394
C          8.78404        1.33932       -0.02465
C          8.84182       -0.04556       -0.00277
O          7.55739       -0.52602        0.03812
C          9.98454       -0.91832       -0.00151
C         11.22444       -0.76629       -0.56064
C         11.91828        0.18831       -1.38922
O         11.50033        1.26857       -1.76875
N         13.13565       -0.41078       -1.67543
C         14.09487        0.11367       -2.61241
C         13.31083       -1.64289       -1.07075
O         14.28115       -2.37763       -1.12808
C         12.07427       -1.87861       -0.37344
C         11.50282       -2.91270        0.31029
S          9.89572       -2.47452        0.76294
C         12.04602       -4.20341        0.61092
C         13.34522       -4.54311        0.93528
C         13.36575       -5.93881        1.16296
C         12.07317       -6.40869        0.98013
O         11.28906       -5.34277        0.61348
C         11.52420       -7.68892        1.28068
C         11.11973       -7.95787        2.53544
S         11.26630       -6.72904        3.79821
C         10.41982       -9.14949        3.04398
C         10.23763      -10.29394        2.37534
N          9.95194       -8.92289        4.32424
C         10.19042       -7.66412        4.82435
C          9.74751       -7.08648        5.94782
C         10.05033       -5.74325        6.32948
N         10.28672       -4.65950        6.67210
C          9.02668       -7.87742        7.02728
N          8.42869       -8.53356        7.92278
H         -0.25930       -3.67767       -0.18547
H         -1.60533       -4.74971        1.55343
H         -1.37922       -4.04234        3.92232
H          0.29004       -2.31122        4.53183
H          1.53442       -1.10383        2.78639
H         -1.50180       -1.29575       -0.17838
H         -2.82802       -1.33097       -2.23239
H         -1.71063       -1.22351       -4.44612
H          0.76502       -1.11553       -4.56966
H          2.12769       -1.20706       -2.52788
H          0.82662        1.27031       -0.61332
H          1.39684        3.30494       -1.83517
H          3.75915        3.77231       -2.44010
H          5.52302        2.30237       -1.66370
H          5.65889       -1.55169        1.31961
H          3.38646       -2.39122        1.32207
H          7.01139        2.70802        0.05727
H          9.62745        2.01031       -0.05077
H         15.05838        0.24087       -2.11115
H         14.22428       -0.61976       -3.41606
H         13.75748        1.06165       -3.03652
H         14.17660       -3.85866        1.03507
H         14.20658       -6.52434        1.50800
H         11.38716       -8.38597        0.46499
H         10.61479      -10.44590        1.37124
H          9.70530      -11.12707        2.82366
H          9.31968       -9.57973        4.76221
